REMARK SMILES Cc1c[nH]c2nccc(-c3ccnc(N(C)C)c3)c12
REMARK SMILES IDX 10 1 11 2 12 3 13 4 14 5 18 6 9 7 2 8 3 9 19 10 4 11 5 12
REMARK SMILES IDX 8 13 6 14 7 15 1 16 15 18 16 19 17 20
REMARK H PARENT 4 17
ROOT
ATOM      1  C   UNL     1      -0.015  -0.590  -0.785  1.00  0.00    -0.012 A 
ATOM      2  C   UNL     1       0.140  -0.391  -2.154  1.00  0.00     0.029 A 
ATOM      3  C   UNL     1       1.274   0.260  -2.595  1.00  0.00     0.114 A 
ATOM      4  N   UNL     1       2.253   0.707  -1.778  1.00  0.00    -0.239 NA
ATOM      5  C   UNL     1       2.129   0.504  -0.448  1.00  0.00     0.128 A 
ATOM      6  C   UNL     1       0.999  -0.135   0.068  1.00  0.00     0.055 A 
ENDROOT
BRANCH   1   7
ATOM      7  C   UNL     1      -1.198  -1.260  -0.254  1.00  0.00    -0.005 A 
ATOM      8  C   UNL     1      -2.627   0.862   0.461  1.00  0.00    -0.023 A 
ATOM      9  C   UNL     1      -3.880   0.892   1.051  1.00  0.00     0.088 A 
ATOM     10  C   UNL     1      -2.286  -0.523   0.273  1.00  0.00     0.029 A 
ATOM     11  N   UNL     1      -4.307  -0.396   1.221  1.00  0.00    -0.346 N 
ATOM     12  C   UNL     1      -3.362  -1.265   0.756  1.00  0.00     0.138 A 
ATOM     13  C   UNL     1      -1.300  -2.660  -0.246  1.00  0.00     0.029 A 
ATOM     14  N   UNL     1      -3.502  -2.603   0.785  1.00  0.00    -0.239 NA
ATOM     15  C   UNL     1      -2.440  -3.256   0.271  1.00  0.00     0.114 A 
ATOM     16  C   UNL     1      -1.813   2.054   0.103  1.00  0.00     0.047 C 
ATOM     17  H   UNL     1      -5.184  -0.691   1.625  1.00  0.00     0.167 HD
ENDBRANCH   1   7
BRANCH   5  18
ATOM     18  N   UNL     1       3.129   0.975   0.430  1.00  0.00    -0.363 N 
ATOM     19  C   UNL     1       3.711  -0.087   1.251  1.00  0.00     0.144 C 
ATOM     20  C   UNL     1       4.117   1.822  -0.239  1.00  0.00     0.144 C 
ENDBRANCH   5  18
TORSDOF 2
