MODEL 1
REMARK VINA RESULT:    -7.970      0.000      0.000
REMARK INTER + INTRA:          -9.460
REMARK INTER:                  -8.901
REMARK INTRA:                  -0.559
REMARK UNBOUND:                -0.559
REMARK SMILES Cc1c[nH]c2nccc(-c3ccnc(N(C)C)c3)c12
REMARK SMILES IDX 10 1 11 2 12 3 13 4 14 5 18 6 9 7 2 8 3 9 19 10 4 11 5 12
REMARK SMILES IDX 8 13 6 14 7 15 1 16 15 18 16 19 17 20
REMARK H PARENT 4 17
ROOT
ATOM      1  C   UNL     1      10.810 -19.310  13.595  1.00  0.00    -0.012 A 
ATOM      2  C   UNL     1      12.068 -19.665  13.117  1.00  0.00     0.029 A 
ATOM      3  C   UNL     1      13.178 -19.216  13.804  1.00  0.00     0.114 A 
ATOM      4  N   UNL     1      13.118 -18.460  14.922  1.00  0.00    -0.239 NA
ATOM      5  C   UNL     1      11.904 -18.123  15.411  1.00  0.00     0.128 A 
ATOM      6  C   UNL     1      10.739 -18.532  14.757  1.00  0.00     0.055 A 
ENDROOT
BRANCH   1   7
ATOM      7  C   UNL     1       9.597 -19.742  12.906  1.00  0.00    -0.005 A 
ATOM      8  C   UNL     1       9.086 -17.553  11.491  1.00  0.00    -0.023 A 
ATOM      9  C   UNL     1       8.035 -17.322  10.619  1.00  0.00     0.088 A 
ATOM     10  C   UNL     1       8.918 -18.886  12.006  1.00  0.00     0.029 A 
ATOM     11  N   UNL     1       7.253 -18.444  10.580  1.00  0.00    -0.346 N 
ATOM     12  C   UNL     1       7.770 -19.400  11.407  1.00  0.00     0.138 A 
ATOM     13  C   UNL     1       9.060 -21.022  13.112  1.00  0.00     0.029 A 
ATOM     14  N   UNL     1       7.219 -20.616  11.575  1.00  0.00    -0.239 NA
ATOM     15  C   UNL     1       7.904 -21.391  12.440  1.00  0.00     0.114 A 
ATOM     16  C   UNL     1      10.166 -16.584  11.815  1.00  0.00     0.047 C 
ATOM     17  H   UNL     1       6.416 -18.576  10.032  1.00  0.00     0.167 HD
ENDBRANCH   1   7
BRANCH   5  18
ATOM     18  N   UNL     1      11.812 -17.321  16.569  1.00  0.00    -0.363 N 
ATOM     19  C   UNL     1      13.120 -16.966  17.120  1.00  0.00     0.144 C 
ATOM     20  C   UNL     1      10.907 -16.184  16.400  1.00  0.00     0.144 C 
ENDBRANCH   5  18
TORSDOF 2
ENDMDL
MODEL 2
REMARK VINA RESULT:    -7.799      2.118      5.799
REMARK INTER + INTRA:          -9.269
REMARK INTER:                  -8.702
REMARK INTRA:                  -0.567
REMARK UNBOUND:                -0.559
REMARK SMILES Cc1c[nH]c2nccc(-c3ccnc(N(C)C)c3)c12
REMARK SMILES IDX 10 1 11 2 12 3 13 4 14 5 18 6 9 7 2 8 3 9 19 10 4 11 5 12
REMARK SMILES IDX 8 13 6 14 7 15 1 16 15 18 16 19 17 20
REMARK H PARENT 4 17
ROOT
ATOM      1  C   UNL     1      10.933 -18.911  14.012  1.00  0.00    -0.012 A 
ATOM      2  C   UNL     1       9.669 -19.162  14.538  1.00  0.00     0.029 A 
ATOM      3  C   UNL     1       8.591 -18.494  13.994  1.00  0.00     0.114 A 
ATOM      4  N   UNL     1       8.685 -17.617  12.971  1.00  0.00    -0.239 NA
ATOM      5  C   UNL     1       9.902 -17.377  12.434  1.00  0.00     0.128 A 
ATOM      6  C   UNL     1      11.038 -18.008  12.946  1.00  0.00     0.055 A 
ENDROOT
BRANCH   1   7
ATOM      7  C   UNL     1      12.115 -19.576  14.552  1.00  0.00    -0.005 A 
ATOM      8  C   UNL     1      12.921 -17.720  16.273  1.00  0.00    -0.023 A 
ATOM      9  C   UNL     1      14.023 -17.750  17.111  1.00  0.00     0.088 A 
ATOM     10  C   UNL     1      12.919 -18.958  15.540  1.00  0.00     0.029 A 
ATOM     11  N   UNL     1      14.676 -18.937  16.923  1.00  0.00    -0.346 N 
ATOM     12  C   UNL     1      14.025 -19.682  15.981  1.00  0.00     0.138 A 
ATOM     13  C   UNL     1      12.498 -20.852  14.110  1.00  0.00     0.029 A 
ATOM     14  N   UNL     1      14.430 -20.903  15.587  1.00  0.00    -0.239 NA
ATOM     15  C   UNL     1      13.630 -21.446  14.647  1.00  0.00     0.114 A 
ATOM     16  C   UNL     1      11.943 -16.604  16.173  1.00  0.00     0.047 C 
ATOM     17  H   UNL     1      15.514 -19.245  17.394  1.00  0.00     0.167 HD
ENDBRANCH   1   7
BRANCH   5  18
ATOM     18  N   UNL     1      10.031 -16.454  11.374  1.00  0.00    -0.363 N 
ATOM     19  C   UNL     1       9.427 -16.928  10.129  1.00  0.00     0.144 C 
ATOM     20  C   UNL     1       9.633 -15.098  11.753  1.00  0.00     0.144 C 
ENDBRANCH   5  18
TORSDOF 2
ENDMDL
MODEL 3
REMARK VINA RESULT:    -7.770      1.420      5.716
REMARK INTER + INTRA:          -9.238
REMARK INTER:                  -8.689
REMARK INTRA:                  -0.549
REMARK UNBOUND:                -0.559
REMARK SMILES Cc1c[nH]c2nccc(-c3ccnc(N(C)C)c3)c12
REMARK SMILES IDX 10 1 11 2 12 3 13 4 14 5 18 6 9 7 2 8 3 9 19 10 4 11 5 12
REMARK SMILES IDX 8 13 6 14 7 15 1 16 15 18 16 19 17 20
REMARK H PARENT 4 17
ROOT
ATOM      1  C   UNL     1      10.252 -19.697  13.244  1.00  0.00    -0.012 A 
ATOM      2  C   UNL     1       9.091 -20.210  13.815  1.00  0.00     0.029 A 
ATOM      3  C   UNL     1       7.912 -20.105  13.105  1.00  0.00     0.114 A 
ATOM      4  N   UNL     1       7.818 -19.544  11.879  1.00  0.00    -0.239 NA
ATOM      5  C   UNL     1       8.939 -19.060  11.301  1.00  0.00     0.128 A 
ATOM      6  C   UNL     1      10.163 -19.120  11.971  1.00  0.00     0.055 A 
ENDROOT
BRANCH   1   7
ATOM      7  C   UNL     1      11.528 -19.764  13.951  1.00  0.00    -0.005 A 
ATOM      8  C   UNL     1      11.617 -17.303  14.944  1.00  0.00    -0.023 A 
ATOM      9  C   UNL     1      12.608 -16.728  15.723  1.00  0.00     0.088 A 
ATOM     10  C   UNL     1      12.034 -18.650  14.663  1.00  0.00     0.029 A 
ATOM     11  N   UNL     1      13.590 -17.659  15.925  1.00  0.00    -0.346 N 
ATOM     12  C   UNL     1      13.262 -18.825  15.297  1.00  0.00     0.138 A 
ATOM     13  C   UNL     1      12.299 -20.937  13.949  1.00  0.00     0.029 A 
ATOM     14  N   UNL     1      14.035 -19.927  15.321  1.00  0.00    -0.239 NA
ATOM     15  C   UNL     1      13.507 -20.957  14.630  1.00  0.00     0.114 A 
ATOM     16  C   UNL     1      10.369 -16.627  14.499  1.00  0.00     0.047 C 
ATOM     17  H   UNL     1      14.439 -17.531  16.456  1.00  0.00     0.167 HD
ENDBRANCH   1   7
BRANCH   5  18
ATOM     18  N   UNL     1       8.867 -18.454  10.028  1.00  0.00    -0.363 N 
ATOM     19  C   UNL     1       7.557 -18.615   9.395  1.00  0.00     0.144 C 
ATOM     20  C   UNL     1       9.366 -17.079  10.025  1.00  0.00     0.144 C 
ENDBRANCH   5  18
TORSDOF 2
ENDMDL
MODEL 4
REMARK VINA RESULT:    -7.712      1.935      5.980
REMARK INTER + INTRA:          -9.172
REMARK INTER:                  -8.952
REMARK INTRA:                  -0.220
REMARK UNBOUND:                -0.559
REMARK SMILES Cc1c[nH]c2nccc(-c3ccnc(N(C)C)c3)c12
REMARK SMILES IDX 10 1 11 2 12 3 13 4 14 5 18 6 9 7 2 8 3 9 19 10 4 11 5 12
REMARK SMILES IDX 8 13 6 14 7 15 1 16 15 18 16 19 17 20
REMARK H PARENT 4 17
ROOT
ATOM      1  C   UNL     1      11.496 -18.714  13.882  1.00  0.00    -0.012 A 
ATOM      2  C   UNL     1      11.722 -17.490  13.259  1.00  0.00     0.029 A 
ATOM      3  C   UNL     1      10.661 -16.871  12.630  1.00  0.00     0.114 A 
ATOM      4  N   UNL     1       9.408 -17.376  12.593  1.00  0.00    -0.239 NA
ATOM      5  C   UNL     1       9.166 -18.553  13.210  1.00  0.00     0.128 A 
ATOM      6  C   UNL     1      10.198 -19.241  13.853  1.00  0.00     0.055 A 
ENDROOT
BRANCH   1   7
ATOM      7  C   UNL     1      12.580 -19.426  14.553  1.00  0.00    -0.005 A 
ATOM      8  C   UNL     1      13.101 -17.702  16.505  1.00  0.00    -0.023 A 
ATOM      9  C   UNL     1      14.058 -17.800  17.502  1.00  0.00     0.088 A 
ATOM     10  C   UNL     1      13.217 -18.886  15.696  1.00  0.00     0.029 A 
ATOM     11  N   UNL     1      14.735 -18.977  17.336  1.00  0.00    -0.346 N 
ATOM     12  C   UNL     1      14.241 -19.648  16.254  1.00  0.00     0.138 A 
ATOM     13  C   UNL     1      13.030 -20.672  14.089  1.00  0.00     0.029 A 
ATOM     14  N   UNL     1      14.705 -20.843  15.843  1.00  0.00    -0.239 NA
ATOM     15  C   UNL     1      14.064 -21.312  14.754  1.00  0.00     0.114 A 
ATOM     16  C   UNL     1      12.150 -16.572  16.331  1.00  0.00     0.047 C 
ATOM     17  H   UNL     1      15.488 -19.325  17.910  1.00  0.00     0.167 HD
ENDBRANCH   1   7
BRANCH   5  18
ATOM     18  N   UNL     1       7.870 -19.111  13.172  1.00  0.00    -0.363 N 
ATOM     19  C   UNL     1       6.814 -18.098  13.169  1.00  0.00     0.144 C 
ATOM     20  C   UNL     1       7.722 -20.131  12.133  1.00  0.00     0.144 C 
ENDBRANCH   5  18
TORSDOF 2
ENDMDL
MODEL 5
REMARK VINA RESULT:    -7.667      1.774      6.190
REMARK INTER + INTRA:          -9.123
REMARK INTER:                  -8.588
REMARK INTRA:                  -0.534
REMARK UNBOUND:                -0.559
REMARK SMILES Cc1c[nH]c2nccc(-c3ccnc(N(C)C)c3)c12
REMARK SMILES IDX 10 1 11 2 12 3 13 4 14 5 18 6 9 7 2 8 3 9 19 10 4 11 5 12
REMARK SMILES IDX 8 13 6 14 7 15 1 16 15 18 16 19 17 20
REMARK H PARENT 4 17
ROOT
ATOM      1  C   UNL     1      11.156 -17.600  14.370  1.00  0.00    -0.012 A 
ATOM      2  C   UNL     1      11.399 -16.766  13.283  1.00  0.00     0.029 A 
ATOM      3  C   UNL     1      10.446 -16.697  12.287  1.00  0.00     0.114 A 
ATOM      4  N   UNL     1       9.282 -17.383  12.308  1.00  0.00    -0.239 NA
ATOM      5  C   UNL     1       9.021 -18.182  13.366  1.00  0.00     0.128 A 
ATOM      6  C   UNL     1       9.948 -18.310  14.402  1.00  0.00     0.055 A 
ENDROOT
BRANCH   1   7
ATOM      7  C   UNL     1      12.130 -17.727  15.450  1.00  0.00    -0.005 A 
ATOM      8  C   UNL     1      13.304 -19.997  14.724  1.00  0.00    -0.023 A 
ATOM      9  C   UNL     1      14.332 -20.672  15.361  1.00  0.00     0.088 A 
ATOM     10  C   UNL     1      13.023 -18.824  15.509  1.00  0.00     0.029 A 
ATOM     11  N   UNL     1      14.683 -19.966  16.479  1.00  0.00    -0.346 N 
ATOM     12  C   UNL     1      13.908 -18.847  16.585  1.00  0.00     0.138 A 
ATOM     13  C   UNL     1      12.217 -16.767  16.469  1.00  0.00     0.029 A 
ATOM     14  N   UNL     1      14.026 -17.951  17.582  1.00  0.00    -0.239 NA
ATOM     15  C   UNL     1      13.154 -16.928  17.478  1.00  0.00     0.114 A 
ATOM     16  C   UNL     1      12.636 -20.430  13.468  1.00  0.00     0.047 C 
ATOM     17  H   UNL     1      15.404 -20.209  17.143  1.00  0.00     0.167 HD
ENDBRANCH   1   7
BRANCH   5  18
ATOM     18  N   UNL     1       7.819 -18.922  13.406  1.00  0.00    -0.363 N 
ATOM     19  C   UNL     1       6.650 -18.130  13.024  1.00  0.00     0.144 C 
ATOM     20  C   UNL     1       7.923 -20.207  12.714  1.00  0.00     0.144 C 
ENDBRANCH   5  18
TORSDOF 2
ENDMDL
MODEL 6
REMARK VINA RESULT:    -7.652      2.186      6.113
REMARK INTER + INTRA:          -9.105
REMARK INTER:                  -8.526
REMARK INTRA:                  -0.580
REMARK UNBOUND:                -0.559
REMARK SMILES Cc1c[nH]c2nccc(-c3ccnc(N(C)C)c3)c12
REMARK SMILES IDX 10 1 11 2 12 3 13 4 14 5 18 6 9 7 2 8 3 9 19 10 4 11 5 12
REMARK SMILES IDX 8 13 6 14 7 15 1 16 15 18 16 19 17 20
REMARK H PARENT 4 17
ROOT
ATOM      1  C   UNL     1      10.890 -17.836  14.497  1.00  0.00    -0.012 A 
ATOM      2  C   UNL     1       9.635 -18.309  14.869  1.00  0.00     0.029 A 
ATOM      3  C   UNL     1       8.577 -18.101  14.007  1.00  0.00     0.114 A 
ATOM      4  N   UNL     1       8.688 -17.475  12.815  1.00  0.00    -0.239 NA
ATOM      5  C   UNL     1       9.903 -17.028  12.429  1.00  0.00     0.128 A 
ATOM      6  C   UNL     1      11.014 -17.192  13.259  1.00  0.00     0.055 A 
ENDROOT
BRANCH   1   7
ATOM      7  C   UNL     1      12.046 -18.013  15.370  1.00  0.00    -0.005 A 
ATOM      8  C   UNL     1      12.945 -20.338  14.453  1.00  0.00    -0.023 A 
ATOM      9  C   UNL     1      14.042 -21.064  14.887  1.00  0.00     0.088 A 
ATOM     10  C   UNL     1      12.879 -19.153  15.266  1.00  0.00     0.029 A 
ATOM     11  N   UNL     1      14.636 -20.377  15.909  1.00  0.00    -0.346 N 
ATOM     12  C   UNL     1      13.952 -19.220  16.152  1.00  0.00     0.138 A 
ATOM     13  C   UNL     1      12.375 -17.058  16.346  1.00  0.00     0.029 A 
ATOM     14  N   UNL     1      14.303 -18.333  17.101  1.00  0.00    -0.239 NA
ATOM     15  C   UNL     1      13.480 -17.267  17.157  1.00  0.00     0.114 A 
ATOM     16  C   UNL     1      12.027 -20.736  13.352  1.00  0.00     0.047 C 
ATOM     17  H   UNL     1      15.458 -20.657  16.424  1.00  0.00     0.167 HD
ENDBRANCH   1   7
BRANCH   5  18
ATOM     18  N   UNL     1      10.044 -16.357  11.195  1.00  0.00    -0.363 N 
ATOM     19  C   UNL     1       9.358 -17.036  10.096  1.00  0.00     0.144 C 
ATOM     20  C   UNL     1       9.748 -14.927  11.291  1.00  0.00     0.144 C 
ENDBRANCH   5  18
TORSDOF 2
ENDMDL
MODEL 7
REMARK VINA RESULT:    -7.633      1.665      2.790
REMARK INTER + INTRA:          -9.084
REMARK INTER:                  -8.574
REMARK INTRA:                  -0.510
REMARK UNBOUND:                -0.559
REMARK SMILES Cc1c[nH]c2nccc(-c3ccnc(N(C)C)c3)c12
REMARK SMILES IDX 10 1 11 2 12 3 13 4 14 5 18 6 9 7 2 8 3 9 19 10 4 11 5 12
REMARK SMILES IDX 8 13 6 14 7 15 1 16 15 18 16 19 17 20
REMARK H PARENT 4 17
ROOT
ATOM      1  C   UNL     1      10.351 -17.468  14.189  1.00  0.00    -0.012 A 
ATOM      2  C   UNL     1      11.425 -17.302  13.320  1.00  0.00     0.029 A 
ATOM      3  C   UNL     1      12.628 -16.873  13.842  1.00  0.00     0.114 A 
ATOM      4  N   UNL     1      12.831 -16.615  15.153  1.00  0.00    -0.239 NA
ATOM      5  C   UNL     1      11.805 -16.790  16.014  1.00  0.00     0.128 A 
ATOM      6  C   UNL     1      10.556 -17.208  15.550  1.00  0.00     0.055 A 
ENDROOT
BRANCH   1   7
ATOM      7  C   UNL     1       9.049 -17.907  13.696  1.00  0.00    -0.005 A 
ATOM      8  C   UNL     1       9.513 -20.513  13.474  1.00  0.00    -0.023 A 
ATOM      9  C   UNL     1       8.648 -21.503  13.038  1.00  0.00     0.088 A 
ATOM     10  C   UNL     1       8.792 -19.269  13.411  1.00  0.00     0.029 A 
ATOM     11  N   UNL     1       7.451 -20.921  12.722  1.00  0.00    -0.346 N 
ATOM     12  C   UNL     1       7.515 -19.575  12.942  1.00  0.00     0.138 A 
ATOM     13  C   UNL     1       8.004 -16.993  13.487  1.00  0.00     0.029 A 
ATOM     14  N   UNL     1       6.487 -18.735  12.726  1.00  0.00    -0.239 NA
ATOM     15  C   UNL     1       6.784 -17.452  13.014  1.00  0.00     0.114 A 
ATOM     16  C   UNL     1      10.916 -20.727  13.917  1.00  0.00     0.047 C 
ATOM     17  H   UNL     1       6.626 -21.390  12.378  1.00  0.00     0.167 HD
ENDBRANCH   1   7
BRANCH   5  18
ATOM     18  N   UNL     1      11.985 -16.512  17.386  1.00  0.00    -0.363 N 
ATOM     19  C   UNL     1      13.225 -17.075  17.923  1.00  0.00     0.144 C 
ATOM     20  C   UNL     1      11.782 -15.100  17.710  1.00  0.00     0.144 C 
ENDBRANCH   5  18
TORSDOF 2
ENDMDL
MODEL 8
REMARK VINA RESULT:    -7.580      0.934      2.511
REMARK INTER + INTRA:          -9.025
REMARK INTER:                  -8.594
REMARK INTRA:                  -0.430
REMARK UNBOUND:                -0.559
REMARK SMILES Cc1c[nH]c2nccc(-c3ccnc(N(C)C)c3)c12
REMARK SMILES IDX 10 1 11 2 12 3 13 4 14 5 18 6 9 7 2 8 3 9 19 10 4 11 5 12
REMARK SMILES IDX 8 13 6 14 7 15 1 16 15 18 16 19 17 20
REMARK H PARENT 4 17
ROOT
ATOM      1  C   UNL     1      11.272 -18.335  13.454  1.00  0.00    -0.012 A 
ATOM      2  C   UNL     1      12.250 -19.256  13.091  1.00  0.00     0.029 A 
ATOM      3  C   UNL     1      13.286 -19.490  13.972  1.00  0.00     0.114 A 
ATOM      4  N   UNL     1      13.403 -18.888  15.176  1.00  0.00    -0.239 NA
ATOM      5  C   UNL     1      12.452 -18.006  15.554  1.00  0.00     0.128 A 
ATOM      6  C   UNL     1      11.383 -17.711  14.704  1.00  0.00     0.055 A 
ENDROOT
BRANCH   1   7
ATOM      7  C   UNL     1      10.158 -18.032  12.561  1.00  0.00    -0.005 A 
ATOM      8  C   UNL     1       8.744 -20.263  12.845  1.00  0.00    -0.023 A 
ATOM      9  C   UNL     1       7.547 -20.602  12.235  1.00  0.00     0.088 A 
ATOM     10  C   UNL     1       9.102 -18.955  12.365  1.00  0.00     0.029 A 
ATOM     11  N   UNL     1       7.170 -19.569  11.422  1.00  0.00    -0.346 N 
ATOM     12  C   UNL     1       8.092 -18.564  11.488  1.00  0.00     0.138 A 
ATOM     13  C   UNL     1      10.093 -16.816  11.864  1.00  0.00     0.029 A 
ATOM     14  N   UNL     1       7.989 -17.413  10.799  1.00  0.00    -0.239 NA
ATOM     15  C   UNL     1       9.018 -16.571  11.023  1.00  0.00     0.114 A 
ATOM     16  C   UNL     1       9.492 -21.113  13.809  1.00  0.00     0.047 C 
ATOM     17  H   UNL     1       6.339 -19.526  10.849  1.00  0.00     0.167 HD
ENDBRANCH   1   7
BRANCH   5  18
ATOM     18  N   UNL     1      12.558 -17.350  16.799  1.00  0.00    -0.363 N 
ATOM     19  C   UNL     1      13.745 -17.751  17.554  1.00  0.00     0.144 C 
ATOM     20  C   UNL     1      12.377 -15.902  16.694  1.00  0.00     0.144 C 
ENDBRANCH   5  18
TORSDOF 2
ENDMDL
MODEL 9
REMARK VINA RESULT:    -7.501      0.975      2.041
REMARK INTER + INTRA:          -8.937
REMARK INTER:                  -8.364
REMARK INTRA:                  -0.573
REMARK UNBOUND:                -0.559
REMARK SMILES Cc1c[nH]c2nccc(-c3ccnc(N(C)C)c3)c12
REMARK SMILES IDX 10 1 11 2 12 3 13 4 14 5 18 6 9 7 2 8 3 9 19 10 4 11 5 12
REMARK SMILES IDX 8 13 6 14 7 15 1 16 15 18 16 19 17 20
REMARK H PARENT 4 17
ROOT
ATOM      1  C   UNL     1       9.931 -18.280  14.104  1.00  0.00    -0.012 A 
ATOM      2  C   UNL     1       9.365 -17.293  14.907  1.00  0.00     0.029 A 
ATOM      3  C   UNL     1      10.157 -16.701  15.870  1.00  0.00     0.114 A 
ATOM      4  N   UNL     1      11.456 -17.013  16.074  1.00  0.00    -0.239 NA
ATOM      5  C   UNL     1      12.027 -17.954  15.290  1.00  0.00     0.128 A 
ATOM      6  C   UNL     1      11.279 -18.604  14.306  1.00  0.00     0.055 A 
ENDROOT
BRANCH   1   7
ATOM      7  C   UNL     1       9.142 -18.953  13.077  1.00  0.00    -0.005 A 
ATOM      8  C   UNL     1       9.382 -17.189  11.106  1.00  0.00    -0.023 A 
ATOM      9  C   UNL     1       8.840 -17.248   9.832  1.00  0.00     0.088 A 
ATOM     10  C   UNL     1       8.963 -18.381  11.795  1.00  0.00     0.029 A 
ATOM     11  N   UNL     1       8.126 -18.409   9.722  1.00  0.00    -0.346 N 
ATOM     12  C   UNL     1       8.189 -19.108  10.893  1.00  0.00     0.138 A 
ATOM     13  C   UNL     1       8.532 -20.193  13.323  1.00  0.00     0.029 A 
ATOM     14  N   UNL     1       7.586 -20.296  11.085  1.00  0.00    -0.239 NA
ATOM     15  C   UNL     1       7.789 -20.797  12.321  1.00  0.00     0.114 A 
ATOM     16  C   UNL     1      10.232 -16.088  11.631  1.00  0.00     0.047 C 
ATOM     17  H   UNL     1       7.618 -18.729   8.909  1.00  0.00     0.167 HD
ENDBRANCH   1   7
BRANCH   5  18
ATOM     18  N   UNL     1      13.378 -18.311  15.493  1.00  0.00    -0.363 N 
ATOM     19  C   UNL     1      13.897 -17.860  16.784  1.00  0.00     0.144 C 
ATOM     20  C   UNL     1      13.641 -19.720  15.202  1.00  0.00     0.144 C 
ENDBRANCH   5  18
TORSDOF 2
ENDMDL
MODEL 10
REMARK VINA RESULT:    -7.427      1.454      5.917
REMARK INTER + INTRA:          -8.854
REMARK INTER:                  -8.278
REMARK INTRA:                  -0.576
REMARK UNBOUND:                -0.559
REMARK SMILES Cc1c[nH]c2nccc(-c3ccnc(N(C)C)c3)c12
REMARK SMILES IDX 10 1 11 2 12 3 13 4 14 5 18 6 9 7 2 8 3 9 19 10 4 11 5 12
REMARK SMILES IDX 8 13 6 14 7 15 1 16 15 18 16 19 17 20
REMARK H PARENT 4 17
ROOT
ATOM      1  C   UNL     1       9.482 -19.164  13.710  1.00  0.00    -0.012 A 
ATOM      2  C   UNL     1       9.149 -20.400  14.258  1.00  0.00     0.029 A 
ATOM      3  C   UNL     1       8.696 -21.390  13.409  1.00  0.00     0.114 A 
ATOM      4  N   UNL     1       8.568 -21.237  12.072  1.00  0.00    -0.239 NA
ATOM      5  C   UNL     1       8.907 -20.050  11.521  1.00  0.00     0.128 A 
ATOM      6  C   UNL     1       9.357 -19.000  12.325  1.00  0.00     0.055 A 
ENDROOT
BRANCH   1   7
ATOM      7  C   UNL     1       9.953 -18.072  14.556  1.00  0.00    -0.005 A 
ATOM      8  C   UNL     1      12.536 -18.684  14.672  1.00  0.00    -0.023 A 
ATOM      9  C   UNL     1      13.545 -18.018  15.348  1.00  0.00     0.088 A 
ATOM     10  C   UNL     1      11.317 -17.961  14.921  1.00  0.00     0.029 A 
ATOM     11  N   UNL     1      12.997 -16.936  15.981  1.00  0.00    -0.346 N 
ATOM     12  C   UNL     1      11.655 -16.882  15.734  1.00  0.00     0.138 A 
ATOM     13  C   UNL     1       9.072 -17.093  15.040  1.00  0.00     0.029 A 
ATOM     14  N   UNL     1      10.847 -15.923  16.221  1.00  0.00    -0.239 NA
ATOM     15  C   UNL     1       9.561 -16.075  15.844  1.00  0.00     0.114 A 
ATOM     16  C   UNL     1      12.711 -19.913  13.854  1.00  0.00     0.047 C 
ATOM     17  H   UNL     1      13.486 -16.261  16.551  1.00  0.00     0.167 HD
ENDBRANCH   1   7
BRANCH   5  18
ATOM     18  N   UNL     1       8.767 -19.857  10.130  1.00  0.00    -0.363 N 
ATOM     19  C   UNL     1       8.130 -20.991   9.460  1.00  0.00     0.144 C 
ATOM     20  C   UNL     1       8.182 -18.559   9.794  1.00  0.00     0.144 C 
ENDBRANCH   5  18
TORSDOF 2
ENDMDL
MODEL 11
REMARK VINA RESULT:    -7.398      2.008      5.537
REMARK INTER + INTRA:          -8.822
REMARK INTER:                  -8.293
REMARK INTRA:                  -0.529
REMARK UNBOUND:                -0.559
REMARK SMILES Cc1c[nH]c2nccc(-c3ccnc(N(C)C)c3)c12
REMARK SMILES IDX 10 1 11 2 12 3 13 4 14 5 18 6 9 7 2 8 3 9 19 10 4 11 5 12
REMARK SMILES IDX 8 13 6 14 7 15 1 16 15 18 16 19 17 20
REMARK H PARENT 4 17
ROOT
ATOM      1  C   UNL     1      10.131 -18.295  13.706  1.00  0.00    -0.012 A 
ATOM      2  C   UNL     1       8.904 -18.786  14.141  1.00  0.00     0.029 A 
ATOM      3  C   UNL     1       7.759 -18.126  13.743  1.00  0.00     0.114 A 
ATOM      4  N   UNL     1       7.755 -17.036  12.944  1.00  0.00    -0.239 NA
ATOM      5  C   UNL     1       8.936 -16.558  12.496  1.00  0.00     0.128 A 
ATOM      6  C   UNL     1      10.135 -17.169  12.872  1.00  0.00     0.055 A 
ENDROOT
BRANCH   1   7
ATOM      7  C   UNL     1      11.380 -18.939  14.102  1.00  0.00    -0.005 A 
ATOM      8  C   UNL     1      12.146 -17.277  16.027  1.00  0.00    -0.023 A 
ATOM      9  C   UNL     1      13.288 -17.340  16.808  1.00  0.00     0.088 A 
ATOM     10  C   UNL     1      12.189 -18.403  15.132  1.00  0.00     0.029 A 
ATOM     11  N   UNL     1      14.007 -18.441  16.434  1.00  0.00    -0.346 N 
ATOM     12  C   UNL     1      13.361 -19.098  15.426  1.00  0.00     0.138 A 
ATOM     13  C   UNL     1      11.823 -20.114  13.475  1.00  0.00     0.029 A 
ATOM     14  N   UNL     1      13.825 -20.223  14.853  1.00  0.00    -0.239 NA
ATOM     15  C   UNL     1      13.017 -20.692  13.880  1.00  0.00     0.114 A 
ATOM     16  C   UNL     1      11.094 -16.230  16.119  1.00  0.00     0.047 C 
ATOM     17  H   UNL     1      14.885 -18.748  16.825  1.00  0.00     0.167 HD
ENDBRANCH   1   7
BRANCH   5  18
ATOM     18  N   UNL     1       8.962 -15.412  11.673  1.00  0.00    -0.363 N 
ATOM     19  C   UNL     1       8.664 -14.180  12.405  1.00  0.00     0.144 C 
ATOM     20  C   UNL     1      10.166 -15.337  10.844  1.00  0.00     0.144 C 
ENDBRANCH   5  18
TORSDOF 2
ENDMDL
MODEL 12
REMARK VINA RESULT:    -7.398      2.077      5.698
REMARK INTER + INTRA:          -8.821
REMARK INTER:                  -8.295
REMARK INTRA:                  -0.526
REMARK UNBOUND:                -0.559
REMARK SMILES Cc1c[nH]c2nccc(-c3ccnc(N(C)C)c3)c12
REMARK SMILES IDX 10 1 11 2 12 3 13 4 14 5 18 6 9 7 2 8 3 9 19 10 4 11 5 12
REMARK SMILES IDX 8 13 6 14 7 15 1 16 15 18 16 19 17 20
REMARK H PARENT 4 17
ROOT
ATOM      1  C   UNL     1      10.568 -16.761  13.408  1.00  0.00    -0.012 A 
ATOM      2  C   UNL     1      10.886 -15.974  12.306  1.00  0.00     0.029 A 
ATOM      3  C   UNL     1       9.853 -15.483  11.534  1.00  0.00     0.114 A 
ATOM      4  N   UNL     1       8.546 -15.710  11.790  1.00  0.00    -0.239 NA
ATOM      5  C   UNL     1       8.218 -16.455  12.868  1.00  0.00     0.128 A 
ATOM      6  C   UNL     1       9.214 -16.996  13.684  1.00  0.00     0.055 A 
ENDROOT
BRANCH   1   7
ATOM      7  C   UNL     1      11.614 -17.322  14.257  1.00  0.00    -0.005 A 
ATOM      8  C   UNL     1      11.663 -19.807  13.321  1.00  0.00    -0.023 A 
ATOM      9  C   UNL     1      12.462 -20.862  13.731  1.00  0.00     0.088 A 
ATOM     10  C   UNL     1      12.014 -18.674  14.136  1.00  0.00     0.029 A 
ATOM     11  N   UNL     1      13.272 -20.421  14.741  1.00  0.00    -0.346 N 
ATOM     12  C   UNL     1      13.020 -19.104  14.999  1.00  0.00     0.138 A 
ATOM     13  C   UNL     1      12.263 -16.539  15.226  1.00  0.00     0.029 A 
ATOM     14  N   UNL     1      13.667 -18.393  15.940  1.00  0.00    -0.239 NA
ATOM     15  C   UNL     1      13.250 -17.112  16.013  1.00  0.00     0.114 A 
ATOM     16  C   UNL     1      10.644 -19.866  12.239  1.00  0.00     0.047 C 
ATOM     17  H   UNL     1      13.962 -20.964  15.239  1.00  0.00     0.167 HD
ENDBRANCH   1   7
BRANCH   5  18
ATOM     18  N   UNL     1       6.860 -16.721  13.150  1.00  0.00    -0.363 N 
ATOM     19  C   UNL     1       5.944 -15.877  12.383  1.00  0.00     0.144 C 
ATOM     20  C   UNL     1       6.541 -18.148  13.100  1.00  0.00     0.144 C 
ENDBRANCH   5  18
TORSDOF 2
ENDMDL
MODEL 13
REMARK VINA RESULT:    -7.394      1.248      3.174
REMARK INTER + INTRA:          -8.818
REMARK INTER:                  -8.244
REMARK INTRA:                  -0.574
REMARK UNBOUND:                -0.559
REMARK SMILES Cc1c[nH]c2nccc(-c3ccnc(N(C)C)c3)c12
REMARK SMILES IDX 10 1 11 2 12 3 13 4 14 5 18 6 9 7 2 8 3 9 19 10 4 11 5 12
REMARK SMILES IDX 8 13 6 14 7 15 1 16 15 18 16 19 17 20
REMARK H PARENT 4 17
ROOT
ATOM      1  C   UNL     1       9.963 -17.921  13.391  1.00  0.00    -0.012 A 
ATOM      2  C   UNL     1       9.144 -17.505  14.437  1.00  0.00     0.029 A 
ATOM      3  C   UNL     1       9.707 -17.357  15.688  1.00  0.00     0.114 A 
ATOM      4  N   UNL     1      11.012 -17.579  15.958  1.00  0.00    -0.239 NA
ATOM      5  C   UNL     1      11.826 -17.963  14.950  1.00  0.00     0.128 A 
ATOM      6  C   UNL     1      11.318 -18.147  13.662  1.00  0.00     0.055 A 
ENDROOT
BRANCH   1   7
ATOM      7  C   UNL     1       9.424 -18.110  12.047  1.00  0.00    -0.005 A 
ATOM      8  C   UNL     1       8.946 -20.721  12.123  1.00  0.00    -0.023 A 
ATOM      9  C   UNL     1       8.426 -21.526  11.123  1.00  0.00     0.088 A 
ATOM     10  C   UNL     1       9.012 -19.385  11.593  1.00  0.00     0.029 A 
ATOM     11  N   UNL     1       8.174 -20.746  10.029  1.00  0.00    -0.346 N 
ATOM     12  C   UNL     1       8.517 -19.451  10.292  1.00  0.00     0.138 A 
ATOM     13  C   UNL     1       9.297 -17.032  11.156  1.00  0.00     0.029 A 
ATOM     14  N   UNL     1       8.378 -18.448   9.405  1.00  0.00    -0.239 NA
ATOM     15  C   UNL     1       8.784 -17.256   9.887  1.00  0.00     0.114 A 
ATOM     16  C   UNL     1       9.352 -21.182  13.477  1.00  0.00     0.047 C 
ATOM     17  H   UNL     1       7.790 -21.052   9.146  1.00  0.00     0.167 HD
ENDBRANCH   1   7
BRANCH   5  18
ATOM     18  N   UNL     1      13.190 -18.217  15.208  1.00  0.00    -0.363 N 
ATOM     19  C   UNL     1      13.653 -17.623  16.462  1.00  0.00     0.144 C 
ATOM     20  C   UNL     1      13.543 -19.629  15.050  1.00  0.00     0.144 C 
ENDBRANCH   5  18
TORSDOF 2
ENDMDL
MODEL 14
REMARK VINA RESULT:    -7.334      1.411      5.915
REMARK INTER + INTRA:          -8.750
REMARK INTER:                  -8.276
REMARK INTRA:                  -0.475
REMARK UNBOUND:                -0.559
REMARK SMILES Cc1c[nH]c2nccc(-c3ccnc(N(C)C)c3)c12
REMARK SMILES IDX 10 1 11 2 12 3 13 4 14 5 18 6 9 7 2 8 3 9 19 10 4 11 5 12
REMARK SMILES IDX 8 13 6 14 7 15 1 16 15 18 16 19 17 20
REMARK H PARENT 4 17
ROOT
ATOM      1  C   UNL     1       9.648 -17.641  12.550  1.00  0.00    -0.012 A 
ATOM      2  C   UNL     1       9.794 -16.904  11.377  1.00  0.00     0.029 A 
ATOM      3  C   UNL     1       9.402 -17.485  10.189  1.00  0.00     0.114 A 
ATOM      4  N   UNL     1       8.871 -18.723  10.093  1.00  0.00    -0.239 NA
ATOM      5  C   UNL     1       8.702 -19.444  11.223  1.00  0.00     0.128 A 
ATOM      6  C   UNL     1       9.092 -18.924  12.459  1.00  0.00     0.055 A 
ENDROOT
BRANCH   1   7
ATOM      7  C   UNL     1      10.056 -17.089  13.838  1.00  0.00    -0.005 A 
ATOM      8  C   UNL     1      12.295 -18.465  14.221  1.00  0.00    -0.023 A 
ATOM      9  C   UNL     1      13.166 -18.402  15.297  1.00  0.00     0.088 A 
ATOM     10  C   UNL     1      11.237 -17.527  14.485  1.00  0.00     0.029 A 
ATOM     11  N   UNL     1      12.690 -17.476  16.183  1.00  0.00    -0.346 N 
ATOM     12  C   UNL     1      11.528 -16.935  15.712  1.00  0.00     0.138 A 
ATOM     13  C   UNL     1       9.293 -16.103  14.482  1.00  0.00     0.029 A 
ATOM     14  N   UNL     1      10.828 -15.990  16.366  1.00  0.00    -0.239 NA
ATOM     15  C   UNL     1       9.715 -15.608  15.707  1.00  0.00     0.114 A 
ATOM     16  C   UNL     1      12.452 -19.348  13.035  1.00  0.00     0.047 C 
ATOM     17  H   UNL     1      13.112 -17.211  17.061  1.00  0.00     0.167 HD
ENDBRANCH   1   7
BRANCH   5  18
ATOM     18  N   UNL     1       8.165 -20.748  11.151  1.00  0.00    -0.363 N 
ATOM     19  C   UNL     1       8.494 -21.430   9.899  1.00  0.00     0.144 C 
ATOM     20  C   UNL     1       8.435 -21.539  12.351  1.00  0.00     0.144 C 
ENDBRANCH   5  18
TORSDOF 2
ENDMDL
MODEL 15
REMARK VINA RESULT:    -7.288      1.365      5.981
REMARK INTER + INTRA:          -8.699
REMARK INTER:                  -8.282
REMARK INTRA:                  -0.417
REMARK UNBOUND:                -0.559
REMARK SMILES Cc1c[nH]c2nccc(-c3ccnc(N(C)C)c3)c12
REMARK SMILES IDX 10 1 11 2 12 3 13 4 14 5 18 6 9 7 2 8 3 9 19 10 4 11 5 12
REMARK SMILES IDX 8 13 6 14 7 15 1 16 15 18 16 19 17 20
REMARK H PARENT 4 17
ROOT
ATOM      1  C   UNL     1      11.011 -18.146  13.798  1.00  0.00    -0.012 A 
ATOM      2  C   UNL     1      10.921 -17.154  12.826  1.00  0.00     0.029 A 
ATOM      3  C   UNL     1       9.977 -17.300  11.829  1.00  0.00     0.114 A 
ATOM      4  N   UNL     1       9.124 -18.344  11.745  1.00  0.00    -0.239 NA
ATOM      5  C   UNL     1       9.184 -19.306  12.692  1.00  0.00     0.128 A 
ATOM      6  C   UNL     1      10.125 -19.229  13.721  1.00  0.00     0.055 A 
ENDROOT
BRANCH   1   7
ATOM      7  C   UNL     1      11.997 -18.057  14.871  1.00  0.00    -0.005 A 
ATOM      8  C   UNL     1      10.914 -16.102  16.307  1.00  0.00    -0.023 A 
ATOM      9  C   UNL     1      11.390 -15.535  17.478  1.00  0.00     0.088 A 
ATOM     10  C   UNL     1      11.857 -17.119  15.922  1.00  0.00     0.029 A 
ATOM     11  N   UNL     1      12.560 -16.158  17.814  1.00  0.00    -0.346 N 
ATOM     12  C   UNL     1      12.858 -17.118  16.891  1.00  0.00     0.138 A 
ATOM     13  C   UNL     1      13.120 -18.898  14.899  1.00  0.00     0.029 A 
ATOM     14  N   UNL     1      13.950 -17.903  16.957  1.00  0.00    -0.239 NA
ATOM     15  C   UNL     1      14.034 -18.778  15.935  1.00  0.00     0.114 A 
ATOM     16  C   UNL     1       9.663 -15.712  15.605  1.00  0.00     0.047 C 
ATOM     17  H   UNL     1      13.138 -15.961  18.619  1.00  0.00     0.167 HD
ENDBRANCH   1   7
BRANCH   5  18
ATOM     18  N   UNL     1       8.315 -20.417  12.620  1.00  0.00    -0.363 N 
ATOM     19  C   UNL     1       8.038 -20.833  11.245  1.00  0.00     0.144 C 
ATOM     20  C   UNL     1       8.719 -21.510  13.505  1.00  0.00     0.144 C 
ENDBRANCH   5  18
TORSDOF 2
ENDMDL
MODEL 16
REMARK VINA RESULT:    -7.146      3.063      4.875
REMARK INTER + INTRA:          -8.540
REMARK INTER:                  -7.999
REMARK INTRA:                  -0.541
REMARK UNBOUND:                -0.559
REMARK SMILES Cc1c[nH]c2nccc(-c3ccnc(N(C)C)c3)c12
REMARK SMILES IDX 10 1 11 2 12 3 13 4 14 5 18 6 9 7 2 8 3 9 19 10 4 11 5 12
REMARK SMILES IDX 8 13 6 14 7 15 1 16 15 18 16 19 17 20
REMARK H PARENT 4 17
ROOT
ATOM      1  C   UNL     1       8.545 -17.173  11.151  1.00  0.00    -0.012 A 
ATOM      2  C   UNL     1       9.860 -16.720  11.189  1.00  0.00     0.029 A 
ATOM      3  C   UNL     1      10.092 -15.422  11.598  1.00  0.00     0.114 A 
ATOM      4  N   UNL     1       9.119 -14.566  11.977  1.00  0.00    -0.239 NA
ATOM      5  C   UNL     1       7.838 -14.996  11.967  1.00  0.00     0.128 A 
ATOM      6  C   UNL     1       7.530 -16.293  11.549  1.00  0.00     0.055 A 
ENDROOT
BRANCH   1   7
ATOM      7  C   UNL     1       8.232 -18.531  10.716  1.00  0.00    -0.005 A 
ATOM      8  C   UNL     1       8.769 -19.852  12.957  1.00  0.00    -0.023 A 
ATOM      9  C   UNL     1       8.676 -21.214  13.192  1.00  0.00     0.088 A 
ATOM     10  C   UNL     1       8.371 -19.635  11.592  1.00  0.00     0.029 A 
ATOM     11  N   UNL     1       8.241 -21.820  12.046  1.00  0.00    -0.346 N 
ATOM     12  C   UNL     1       8.048 -20.885  11.069  1.00  0.00     0.138 A 
ATOM     13  C   UNL     1       7.784 -18.792   9.411  1.00  0.00     0.029 A 
ATOM     14  N   UNL     1       7.617 -21.182   9.830  1.00  0.00    -0.239 NA
ATOM     15  C   UNL     1       7.501 -20.097   9.038  1.00  0.00     0.114 A 
ATOM     16  C   UNL     1       9.203 -18.832  13.949  1.00  0.00     0.047 C 
ATOM     17  H   UNL     1       8.076 -22.807  11.912  1.00  0.00     0.167 HD
ENDBRANCH   1   7
BRANCH   5  18
ATOM     18  N   UNL     1       6.799 -14.117  12.342  1.00  0.00    -0.363 N 
ATOM     19  C   UNL     1       7.253 -12.735  12.500  1.00  0.00     0.144 C 
ATOM     20  C   UNL     1       5.605 -14.261  11.509  1.00  0.00     0.144 C 
ENDBRANCH   5  18
TORSDOF 2
ENDMDL
MODEL 17
REMARK VINA RESULT:    -7.102      2.419      4.778
REMARK INTER + INTRA:          -8.491
REMARK INTER:                  -7.932
REMARK INTRA:                  -0.559
REMARK UNBOUND:                -0.559
REMARK SMILES Cc1c[nH]c2nccc(-c3ccnc(N(C)C)c3)c12
REMARK SMILES IDX 10 1 11 2 12 3 13 4 14 5 18 6 9 7 2 8 3 9 19 10 4 11 5 12
REMARK SMILES IDX 8 13 6 14 7 15 1 16 15 18 16 19 17 20
REMARK H PARENT 4 17
ROOT
ATOM      1  C   UNL     1       9.421 -17.470  13.869  1.00  0.00    -0.012 A 
ATOM      2  C   UNL     1       9.261 -16.840  15.100  1.00  0.00     0.029 A 
ATOM      3  C   UNL     1       9.019 -15.482  15.112  1.00  0.00     0.114 A 
ATOM      4  N   UNL     1       8.916 -14.724  13.998  1.00  0.00    -0.239 NA
ATOM      5  C   UNL     1       9.049 -15.322  12.794  1.00  0.00     0.128 A 
ATOM      6  C   UNL     1       9.309 -16.692  12.709  1.00  0.00     0.055 A 
ENDROOT
BRANCH   1   7
ATOM      7  C   UNL     1       9.692 -18.902  13.788  1.00  0.00    -0.005 A 
ATOM      8  C   UNL     1      12.319 -18.880  14.181  1.00  0.00    -0.023 A 
ATOM      9  C   UNL     1      13.189 -19.957  14.212  1.00  0.00     0.088 A 
ATOM     10  C   UNL     1      11.004 -19.412  13.936  1.00  0.00     0.029 A 
ATOM     11  N   UNL     1      12.468 -21.100  14.004  1.00  0.00    -0.346 N 
ATOM     12  C   UNL     1      11.147 -20.794  13.838  1.00  0.00     0.138 A 
ATOM     13  C   UNL     1       8.660 -19.826  13.561  1.00  0.00     0.029 A 
ATOM     14  N   UNL     1      10.191 -21.715  13.620  1.00  0.00    -0.239 NA
ATOM     15  C   UNL     1       8.961 -21.177  13.488  1.00  0.00     0.114 A 
ATOM     16  C   UNL     1      12.702 -17.456  14.368  1.00  0.00     0.047 C 
ATOM     17  H   UNL     1      12.829 -22.043  13.973  1.00  0.00     0.167 HD
ENDBRANCH   1   7
BRANCH   5  18
ATOM     18  N   UNL     1       8.962 -14.551  11.614  1.00  0.00    -0.363 N 
ATOM     19  C   UNL     1       8.580 -13.162  11.870  1.00  0.00     0.144 C 
ATOM     20  C   UNL     1      10.136 -14.699  10.753  1.00  0.00     0.144 C 
ENDBRANCH   5  18
TORSDOF 2
ENDMDL
MODEL 18
REMARK VINA RESULT:    -7.008      3.853      5.629
REMARK INTER + INTRA:          -8.386
REMARK INTER:                  -7.797
REMARK INTRA:                  -0.589
REMARK UNBOUND:                -0.559
REMARK SMILES Cc1c[nH]c2nccc(-c3ccnc(N(C)C)c3)c12
REMARK SMILES IDX 10 1 11 2 12 3 13 4 14 5 18 6 9 7 2 8 3 9 19 10 4 11 5 12
REMARK SMILES IDX 8 13 6 14 7 15 1 16 15 18 16 19 17 20
REMARK H PARENT 4 17
ROOT
ATOM      1  C   UNL     1       8.694 -14.825  12.774  1.00  0.00    -0.012 A 
ATOM      2  C   UNL     1       9.650 -15.072  11.793  1.00  0.00     0.029 A 
ATOM      3  C   UNL     1      10.574 -16.072  12.018  1.00  0.00     0.114 A 
ATOM      4  N   UNL     1      10.600 -16.838  13.131  1.00  0.00    -0.239 NA
ATOM      5  C   UNL     1       9.667 -16.626  14.085  1.00  0.00     0.128 A 
ATOM      6  C   UNL     1       8.711 -15.619  13.928  1.00  0.00     0.055 A 
ENDROOT
BRANCH   1   7
ATOM      7  C   UNL     1       7.698 -13.772  12.602  1.00  0.00    -0.005 A 
ATOM      8  C   UNL     1       5.823 -15.141  11.312  1.00  0.00    -0.023 A 
ATOM      9  C   UNL     1       4.598 -14.690  10.848  1.00  0.00     0.088 A 
ATOM     10  C   UNL     1       6.472 -14.021  11.940  1.00  0.00     0.029 A 
ATOM     11  N   UNL     1       4.478 -13.365  11.168  1.00  0.00    -0.346 N 
ATOM     12  C   UNL     1       5.596 -12.943  11.829  1.00  0.00     0.138 A 
ATOM     13  C   UNL     1       7.920 -12.473  13.087  1.00  0.00     0.029 A 
ATOM     14  N   UNL     1       5.767 -11.685  12.276  1.00  0.00    -0.239 NA
ATOM     15  C   UNL     1       6.948 -11.502  12.899  1.00  0.00     0.114 A 
ATOM     16  C   UNL     1       6.341 -16.528  11.171  1.00  0.00     0.047 C 
ATOM     17  H   UNL     1       3.694 -12.765  10.961  1.00  0.00     0.167 HD
ENDBRANCH   1   7
BRANCH   5  18
ATOM     18  N   UNL     1       9.681 -17.400  15.265  1.00  0.00    -0.363 N 
ATOM     19  C   UNL     1       8.354 -17.885  15.643  1.00  0.00     0.144 C 
ATOM     20  C   UNL     1      10.714 -18.437  15.250  1.00  0.00     0.144 C 
ENDBRANCH   5  18
TORSDOF 2
ENDMDL
MODEL 19
REMARK VINA RESULT:    -6.946      1.792      5.378
REMARK INTER + INTRA:          -8.317
REMARK INTER:                  -7.802
REMARK INTRA:                  -0.515
REMARK UNBOUND:                -0.559
REMARK SMILES Cc1c[nH]c2nccc(-c3ccnc(N(C)C)c3)c12
REMARK SMILES IDX 10 1 11 2 12 3 13 4 14 5 18 6 9 7 2 8 3 9 19 10 4 11 5 12
REMARK SMILES IDX 8 13 6 14 7 15 1 16 15 18 16 19 17 20
REMARK H PARENT 4 17
ROOT
ATOM      1  C   UNL     1       8.908 -18.933  11.852  1.00  0.00    -0.012 A 
ATOM      2  C   UNL     1       8.987 -19.099  10.472  1.00  0.00     0.029 A 
ATOM      3  C   UNL     1       7.927 -18.668   9.701  1.00  0.00     0.114 A 
ATOM      4  N   UNL     1       6.818 -18.082  10.203  1.00  0.00    -0.239 NA
ATOM      5  C   UNL     1       6.734 -17.894  11.538  1.00  0.00     0.128 A 
ATOM      6  C   UNL     1       7.764 -18.320  12.379  1.00  0.00     0.055 A 
ENDROOT
BRANCH   1   7
ATOM      7  C   UNL     1       9.990 -19.380  12.724  1.00  0.00    -0.005 A 
ATOM      8  C   UNL     1      11.195 -17.054  13.164  1.00  0.00    -0.023 A 
ATOM      9  C   UNL     1      12.323 -16.804  13.929  1.00  0.00     0.088 A 
ATOM     10  C   UNL     1      10.942 -18.468  13.241  1.00  0.00     0.029 A 
ATOM     11  N   UNL     1      12.754 -17.989  14.460  1.00  0.00    -0.346 N 
ATOM     12  C   UNL     1      11.933 -19.004  14.060  1.00  0.00     0.138 A 
ATOM     13  C   UNL     1      10.126 -20.730  13.082  1.00  0.00     0.029 A 
ATOM     14  N   UNL     1      12.103 -20.288  14.427  1.00  0.00    -0.239 NA
ATOM     15  C   UNL     1      11.171 -21.113  13.910  1.00  0.00     0.114 A 
ATOM     16  C   UNL     1      10.415 -16.031  12.417  1.00  0.00     0.047 C 
ATOM     17  H   UNL     1      13.553 -18.123  15.062  1.00  0.00     0.167 HD
ENDBRANCH   1   7
BRANCH   5  18
ATOM     18  N   UNL     1       5.580 -17.298  12.091  1.00  0.00    -0.363 N 
ATOM     19  C   UNL     1       5.850 -15.997  12.705  1.00  0.00     0.144 C 
ATOM     20  C   UNL     1       4.444 -17.299  11.169  1.00  0.00     0.144 C 
ENDBRANCH   5  18
TORSDOF 2
ENDMDL
MODEL 20
REMARK VINA RESULT:    -6.875      2.656      4.722
REMARK INTER + INTRA:          -8.237
REMARK INTER:                  -7.654
REMARK INTRA:                  -0.583
REMARK UNBOUND:                -0.559
REMARK SMILES Cc1c[nH]c2nccc(-c3ccnc(N(C)C)c3)c12
REMARK SMILES IDX 10 1 11 2 12 3 13 4 14 5 18 6 9 7 2 8 3 9 19 10 4 11 5 12
REMARK SMILES IDX 8 13 6 14 7 15 1 16 15 18 16 19 17 20
REMARK H PARENT 4 17
ROOT
ATOM      1  C   UNL     1       9.581 -16.625  12.190  1.00  0.00    -0.012 A 
ATOM      2  C   UNL     1      10.482 -16.033  11.309  1.00  0.00     0.029 A 
ATOM      3  C   UNL     1      10.237 -14.739  10.897  1.00  0.00     0.114 A 
ATOM      4  N   UNL     1       9.180 -14.004  11.307  1.00  0.00    -0.239 NA
ATOM      5  C   UNL     1       8.307 -14.555  12.178  1.00  0.00     0.128 A 
ATOM      6  C   UNL     1       8.486 -15.867  12.624  1.00  0.00     0.055 A 
ENDROOT
BRANCH   1   7
ATOM      7  C   UNL     1       9.776 -17.995  12.652  1.00  0.00    -0.005 A 
ATOM      8  C   UNL     1       8.526 -19.303  10.708  1.00  0.00    -0.023 A 
ATOM      9  C   UNL     1       8.350 -20.671  10.570  1.00  0.00     0.088 A 
ATOM     10  C   UNL     1       9.266 -19.097  11.924  1.00  0.00     0.029 A 
ATOM     11  N   UNL     1       8.947 -21.291  11.632  1.00  0.00    -0.346 N 
ATOM     12  C   UNL     1       9.508 -20.361  12.460  1.00  0.00     0.138 A 
ATOM     13  C   UNL     1      10.477 -18.271  13.837  1.00  0.00     0.029 A 
ATOM     14  N   UNL     1      10.171 -20.671  13.589  1.00  0.00    -0.239 NA
ATOM     15  C   UNL     1      10.636 -19.587  14.242  1.00  0.00     0.114 A 
ATOM     16  C   UNL     1       8.030 -18.270   9.760  1.00  0.00     0.047 C 
ATOM     17  H   UNL     1       8.985 -22.285  11.806  1.00  0.00     0.167 HD
ENDBRANCH   1   7
BRANCH   5  18
ATOM     18  N   UNL     1       7.185 -13.816  12.610  1.00  0.00    -0.363 N 
ATOM     19  C   UNL     1       7.438 -12.376  12.661  1.00  0.00     0.144 C 
ATOM     20  C   UNL     1       5.958 -14.182  11.901  1.00  0.00     0.144 C 
ENDBRANCH   5  18
TORSDOF 2
ENDMDL
