@<TRIPOS>MOLECULE
/home/neil/git/Oslo/VirtualScreen/Outputs/Covalent/Inhib_32_chlo/params/adduct.pdb
 57 60 0 0 0
SMALL
GASTEIGER

@<TRIPOS>ATOM
      1 C           1.7610   50.4590   84.4030 C.3     1  UNL1       -0.0446
      2 N           1.0020   49.7260   83.3790 N.4     1  UNL1        0.2274
      3 C           0.2500   49.0000   82.3630 C.3     1  UNL1       -0.0166
      4 C           0.8460   47.5940   82.1920 C.3     1  UNL1        0.0368
      5 S          -0.4370   46.3060   82.1660 S.3     1  UNL1       -0.1459
      6 C          -1.2080   48.8850   82.7950 C.3     1  UNL1       -0.0209
      7 C          -0.2870   45.9220   80.3770 C.3     1  UNL1        0.0707
      8 N          -0.6860   43.5330   80.6570 N.am    1  UNL1       -0.2867
      9 C           0.1750   44.5120   80.2530 C.2     1  UNL1        0.2269
     10 O           1.2250   44.2820   79.6790 O.2     1  UNL1       -0.2746
     11 C          -0.6830   42.1360   80.2990 C.2     1  UNL1        0.0329
     12 C           0.6040   41.3870   79.9830 C.2     1  UNL1        0.0450
     13 N           0.6670   40.6390   78.7480 N.2     1  UNL1       -0.2597
     14 C          -0.1380   39.7290   78.3270 C.2     1  UNL1        0.0512
     15 C          -1.4450   39.4020   78.9180 C.ar    1  UNL1        0.0617
     16 N          -2.1420   38.3140   78.5410 N.ar    1  UNL1       -0.3591
     17 C          -3.3500   38.3800   79.1220 C.ar    1  UNL1        0.0117
     18 C          -3.4420   39.5250   79.8900 C.ar    1  UNL1        0.0223
     19 C          -2.2120   40.1820   79.7680 C.ar    1  UNL1       -0.0065
     20 C          -1.8930   41.5410   80.2450 C.3     1  UNL1        0.0149
     21 C          -4.6770   39.9420   80.5990 C.ar    1  UNL1        0.0806
     22 C          -5.1130   39.4410   81.8290 C.ar    1  UNL1        0.0038
     23 S          -6.5210   40.2530   82.2570 S.2     1  UNL1       -0.0735
     24 C          -6.5280   41.2100   80.8760 C.ar    1  UNL1        0.1269
     25 N          -5.4800   40.9110   80.0740 N.ar    1  UNL1       -0.2375
     26 C          -7.5050   42.2870   80.6040 C.2     1  UNL1        0.0949
     27 C          -8.4330   42.6280   81.5210 C.2     1  UNL1       -0.0390
     28 C          -9.4370   43.7000   81.2130 C.3     1  UNL1        0.0306
     29 N          -9.3280   44.2860   79.8970 N.pl3   1  UNL1       -0.3313
     30 C          -8.3110   43.8650   78.9990 C.2     1  UNL1        0.0822
     31 N          -7.4740   42.9430   79.3340 N.2     1  UNL1       -0.2382
     32 H           1.5491   50.0467   85.3674 H       1  UNL1        0.0777
     33 H           1.4781   51.4908   84.3862 H       1  UNL1        0.0777
     34 H           2.8081   50.3729   84.2006 H       1  UNL1        0.0777
     35 H           0.1367   49.9142   83.8853 H       1  UNL1        0.2014
     36 H           1.8673   49.5372   82.8731 H       1  UNL1        0.2014
     37 H           0.3060   49.5267   81.4333 H       1  UNL1        0.0856
     38 H           1.5127   47.4005   83.0062 H       1  UNL1        0.0432
     39 H           1.3603   47.5659   81.2541 H       1  UNL1        0.0432
     40 H          -1.2640   48.3583   83.7247 H       1  UNL1        0.0284
     41 H          -1.7600   48.3520   82.0493 H       1  UNL1        0.0284
     42 H          -1.6230   49.8640   82.9142 H       1  UNL1        0.0284
     43 H           0.4237   46.5796   79.9216 H       1  UNL1        0.0471
     44 H          -1.2287   46.0520   79.8859 H       1  UNL1        0.0471
     45 H          -1.4007   43.8170   81.2716 H       1  UNL1        0.1546
     46 H           1.4069   41.4126   80.6308 H       1  UNL1        0.0845
     47 H           0.1581   39.1811   77.5041 H       1  UNL1        0.0850
     48 H          -1.8228   37.5979   77.9456 H       1  UNL1        0.1654
     49 H          -4.0994   37.6792   79.0115 H       1  UNL1        0.0814
     50 H          -2.2539   41.5672   81.2520 H       1  UNL1        0.0375
     51 H          -2.3147   42.1011   79.4367 H       1  UNL1        0.0375
     52 H          -4.6503   38.7005   82.3792 H       1  UNL1        0.0715
     53 H          -8.4528   42.1511   82.4360 H       1  UNL1        0.0609
     54 H         -10.4144   43.2745   81.3058 H       1  UNL1        0.0506
     55 H          -9.2476   44.4921   81.9070 H       1  UNL1        0.0506
     56 H          -9.9647   44.9839   79.6199 H       1  UNL1        0.1472
     57 H          -8.2411   44.3025   78.0669 H       1  UNL1        0.0997
@<TRIPOS>UNITY_ATOM_ATTR
2 1
charge 1
@<TRIPOS>BOND
     1     1     2    1
     2     2     3    1
     3     3     4    1
     4     3     6    1
     5     4     5    1
     6     5     7    1
     7    14    13    2
     8    14    15    1
     9    16    15   ar
    10    16    17   ar
    11    13    12    1
    12    15    19   ar
    13    30    31    2
    14    30    29    1
    15    17    18   ar
    16    31    26    1
    17    10     9    2
    18    19    18   ar
    19    19    20    1
    20    18    21    1
    21    29    28    1
    22    12    11    2
    23    25    21   ar
    24    25    24   ar
    25    20    11    1
    26     9     7    1
    27     9     8   am
    28    11     8    1
    29    21    22   ar
    30    26    24    1
    31    26    27    2
    32    24    23   ar
    33    28    27    1
    34    22    23   ar
    35     1    32    1
    36     1    33    1
    37     1    34    1
    38     2    35    1
    39     2    36    1
    40     3    37    1
    41     4    38    1
    42     4    39    1
    43     6    40    1
    44     6    41    1
    45     6    42    1
    46     7    43    1
    47     7    44    1
    48     8    45    1
    49    12    46    1
    50    14    47    1
    51    16    48    1
    52    17    49    1
    53    20    50    1
    54    20    51    1
    55    22    52    1
    56    27    53    1
    57    28    54    1
    58    28    55    1
    59    29    56    1
    60    30    57    1
