@<TRIPOS>MOLECULE
/home/neil/git/Oslo/VirtualScreen/Outputs/Covalent/Inhib_32_acry/params/adduct.pdb
 60 63 0 0 0
SMALL
GASTEIGER

@<TRIPOS>ATOM
      1 C           2.4150   50.9480   82.6640 C.3     1  UNL1       -0.0446
      2 N           1.3280   49.9700   82.5130 N.4     1  UNL1        0.2274
      3 C           0.2500   49.0000   82.3630 C.3     1  UNL1       -0.0166
      4 C           0.8460   47.5940   82.1920 C.3     1  UNL1        0.0364
      5 S          -0.4370   46.3060   82.1660 S.3     1  UNL1       -0.1547
      6 C          -0.5830   49.3520   81.1350 C.3     1  UNL1       -0.0209
      7 C           0.2910   44.6150   81.7910 C.3     1  UNL1        0.0021
      8 C          -0.2030   43.8300   80.5200 C.3     1  UNL1        0.0333
      9 N          -0.4450   44.9900   78.2870 N.am    1  UNL1       -0.2874
     10 C          -0.9630   44.6880   79.5250 C.2     1  UNL1        0.2178
     11 O          -2.0270   45.1700   79.8880 O.2     1  UNL1       -0.2755
     12 C          -0.9160   46.0780   77.4440 C.2     1  UNL1        0.0329
     13 C           0.0680   46.8520   76.5770 C.2     1  UNL1        0.0450
     14 N           0.0180   48.2900   76.5630 N.2     1  UNL1       -0.2597
     15 C          -1.0080   48.9870   76.2290 C.2     1  UNL1        0.0512
     16 C          -2.3350   48.4220   75.9160 C.ar    1  UNL1        0.0617
     17 N          -3.2320   49.1150   75.1950 N.ar    1  UNL1       -0.3591
     18 C          -4.3420   48.3720   75.1020 C.ar    1  UNL1        0.0117
     19 C          -4.1870   47.1790   75.7890 C.ar    1  UNL1        0.0223
     20 C          -2.8870   47.2080   76.3320 C.ar    1  UNL1       -0.0065
     21 C          -2.2450   46.2150   77.2400 C.3     1  UNL1        0.0149
     22 C          -5.2780   46.1630   75.8260 C.ar    1  UNL1        0.0806
     23 C          -6.0140   45.6760   74.7400 C.ar    1  UNL1        0.0038
     24 S          -7.1520   44.5780   75.3200 S.2     1  UNL1       -0.0735
     25 C          -6.6890   44.7640   76.9220 C.ar    1  UNL1        0.1269
     26 N          -5.6730   45.6480   77.0270 N.ar    1  UNL1       -0.2375
     27 C          -7.3180   44.0830   78.0750 C.2     1  UNL1        0.0949
     28 C          -8.5640   44.4110   78.4730 C.2     1  UNL1       -0.0390
     29 C          -9.1940   43.7040   79.6360 C.3     1  UNL1        0.0306
     30 N          -8.3750   42.6880   80.2550 N.pl3   1  UNL1       -0.3313
     31 C          -7.0690   42.4130   79.7670 C.2     1  UNL1        0.0822
     32 N          -6.5900   43.0620   78.7590 N.2     1  UNL1       -0.2382
     33 H           2.4115   51.3339   83.6620 H       1  UNL1        0.0777
     34 H           2.2717   51.7504   81.9708 H       1  UNL1        0.0777
     35 H           3.3531   50.4716   82.4692 H       1  UNL1        0.0777
     36 H           0.6565   50.6663   82.8366 H       1  UNL1        0.2014
     37 H           1.9995   49.2737   82.1895 H       1  UNL1        0.2014
     38 H          -0.3718   49.0201   83.2336 H       1  UNL1        0.0856
     39 H           1.5127   47.4005   83.0062 H       1  UNL1        0.0432
     40 H           1.3603   47.5659   81.2541 H       1  UNL1        0.0432
     41 H           0.0388   49.3318   80.2645 H       1  UNL1        0.0284
     42 H          -0.9981   50.3310   81.2542 H       1  UNL1        0.0284
     43 H          -1.3742   48.6402   81.0247 H       1  UNL1        0.0284
     44 H           0.0912   43.9938   82.6390 H       1  UNL1        0.0381
     45 H           1.3188   44.8226   81.5777 H       1  UNL1        0.0381
     46 H           0.6515   43.4173   80.0256 H       1  UNL1        0.0366
     47 H          -0.8816   43.0775   80.8637 H       1  UNL1        0.0366
     48 H           0.2932   44.4331   77.9492 H       1  UNL1        0.1546
     49 H           0.7645   46.3497   76.0046 H       1  UNL1        0.0845
     50 H          -0.8968   50.0116   76.1759 H       1  UNL1        0.0850
     51 H          -3.0974   50.0089   74.8050 H       1  UNL1        0.1654
     52 H          -5.1941   48.6493   74.5900 H       1  UNL1        0.0814
     53 H          -2.5771   45.2590   76.8926 H       1  UNL1        0.0375
     54 H          -2.5387   46.6134   78.1887 H       1  UNL1        0.0375
     55 H          -5.8820   45.9439   73.7522 H       1  UNL1        0.0715
     56 H          -9.0853   45.1502   77.9762 H       1  UNL1        0.0609
     57 H         -10.0946   43.2394   79.2926 H       1  UNL1        0.0506
     58 H          -9.3570   44.4509   80.3847 H       1  UNL1        0.0506
     59 H          -8.7251   42.1809   81.0228 H       1  UNL1        0.1472
     60 H          -6.4966   41.6858   80.2238 H       1  UNL1        0.0997
@<TRIPOS>UNITY_ATOM_ATTR
2 1
charge 1
@<TRIPOS>BOND
     1     1     2    1
     2     2     3    1
     3     3     4    1
     4     3     6    1
     5     4     5    1
     6     5     7    1
     7    23    24   ar
     8    23    22   ar
     9    18    17   ar
    10    18    19   ar
    11    17    16   ar
    12    24    25   ar
    13    19    22    1
    14    19    20   ar
    15    22    26   ar
    16    16    15    1
    17    16    20   ar
    18    15    14    2
    19    20    21    1
    20    14    13    1
    21    13    12    2
    22    25    26   ar
    23    25    27    1
    24    21    12    1
    25    12     9    1
    26    27    28    2
    27    27    32    1
    28     9    10   am
    29    28    29    1
    30    32    31    2
    31    10    11    2
    32    10     8    1
    33    29    30    1
    34    31    30    1
    35     8     7    1
    36     1    33    1
    37     1    34    1
    38     1    35    1
    39     2    36    1
    40     2    37    1
    41     3    38    1
    42     4    39    1
    43     4    40    1
    44     6    41    1
    45     6    42    1
    46     6    43    1
    47     7    44    1
    48     7    45    1
    49     8    46    1
    50     8    47    1
    51     9    48    1
    52    13    49    1
    53    15    50    1
    54    17    51    1
    55    18    52    1
    56    21    53    1
    57    21    54    1
    58    23    55    1
    59    28    56    1
    60    29    57    1
    61    29    58    1
    62    30    59    1
    63    31    60    1
