@<TRIPOS>MOLECULE
/home/neil/git/Oslo/VirtualScreen/Outputs/Covalent/Inhib_32_acry/params/adduct.pdb
 59 62 0 0 0
SMALL
GASTEIGER

@<TRIPOS>ATOM
      1 CN       2.4150    50.9480    82.6640 C.3       1 MOL     -0.0155
      2 HN1      2.6840    51.0330    83.7170 H         1 MOL      0.0388
      3 HN2      2.0850    51.9180    82.2930 H         1 MOL      0.0388
      4 HN3      3.2830    50.6180    82.0930 H         1 MOL      0.0388
      5 N        1.3280    49.9700    82.5130 N.3       1 MOL     -0.3157
      6 H        1.3280    50.0600    81.5070 H         1 MOL      0.1219
      7 CA       0.2500    49.0000    82.3630 C.3       1 MOL      0.0135
      8 HA      -0.3830    49.0210    83.2500 H         1 MOL      0.0465
      9 CB       0.8460    47.5940    82.1920 C.3       1 MOL      0.0088
     10 HB2      1.5870    47.5100    81.3970 H         1 MOL      0.0391
     11 HB3      1.6910    47.3780    82.8460 H         1 MOL      0.0391
     12 SG      -0.4370    46.3060    82.1660 S.3       1 MOL     -0.1587
     13 CC      -0.5830    49.3520    81.1350 C.3       1 MOL     -0.0489
     14 HC1     -1.6430    49.2810    81.3830 H         1 MOL      0.0245
     15 HC2     -0.3520    48.6570    80.3280 H         1 MOL      0.0245
     16 HC3     -0.3520    50.3680    80.8180 H         1 MOL      0.0245
     17 C1       0.2910    44.6150    81.7910 C.3       1 MOL      0.0020
     18 C2      -0.2030    43.8300    80.5200 C.3       1 MOL      0.0333
     19 N3      -0.4450    44.9900    78.2870 N.am      1 MOL     -0.2874
     20 C4      -0.9630    44.6880    79.5250 C.2       1 MOL      0.2178
     21 O5      -2.0270    45.1700    79.8880 O.2       1 MOL     -0.2755
     22 H6       0.4160    44.5020    77.9990 H         1 MOL      0.1546
     23 C7      -0.9160    46.0780    77.4440 C.2       1 MOL      0.0329
     24 C8       0.0680    46.8520    76.5770 C.2       1 MOL      0.0450
     25 N9       0.0180    48.2900    76.5630 N.2       1 MOL     -0.2597
     26 C10     -1.0080    48.9870    76.2290 C.2       1 MOL      0.0512
     27 C11     -2.3350    48.4220    75.9160 C.ar      1 MOL      0.0617
     28 N12     -3.2320    49.1150    75.1950 N.ar      1 MOL     -0.3591
     29 C13     -4.3420    48.3720    75.1020 C.ar      1 MOL      0.0117
     30 C14     -4.1870    47.1790    75.7890 C.ar      1 MOL      0.0223
     31 C15     -2.8870    47.2080    76.3320 C.ar      1 MOL     -0.0065
     32 C16     -2.2450    46.2150    77.2400 C.3       1 MOL      0.0149
     33 H17     -3.0940    50.0600    74.7720 H         1 MOL      0.1654
     34 C18     -5.2780    46.1630    75.8260 C.ar      1 MOL      0.0806
     35 C19     -6.0140    45.6760    74.7400 C.ar      1 MOL      0.0038
     36 S20     -7.1520    44.5780    75.3200 S.2       1 MOL     -0.0735
     37 C21     -6.6890    44.7640    76.9220 C.ar      1 MOL      0.1269
     38 N22     -5.6730    45.6480    77.0270 N.ar      1 MOL     -0.2375
     39 C23     -7.3180    44.0830    78.0750 C.2       1 MOL      0.0949
     40 C24     -8.5640    44.4110    78.4730 C.2       1 MOL     -0.0390
     41 C25     -9.1940    43.7040    79.6360 C.3       1 MOL      0.0306
     42 N26     -8.3750    42.6880    80.2550 N.pl3     1 MOL     -0.3313
     43 C27     -7.0690    42.4130    79.7670 C.2       1 MOL      0.0822
     44 N28     -6.5900    43.0620    78.7590 N.2       1 MOL     -0.2382
     45 H29     -8.7420    42.1580    81.0590 H         1 MOL      0.1472
     46 H        0.0912    43.9938    82.6390 H         1 MOL      0.0381
     47 H        1.3188    44.8226    81.5777 H         1 MOL      0.0381
     48 H        0.6515    43.4173    80.0256 H         1 MOL      0.0366
     49 H       -0.8816    43.0775    80.8637 H         1 MOL      0.0366
     50 H        0.7645    46.3497    76.0046 H         1 MOL      0.0845
     51 H       -0.8968    50.0116    76.1759 H         1 MOL      0.0850
     52 H       -5.1941    48.6493    74.5900 H         1 MOL      0.0814
     53 H       -2.5771    45.2590    76.8926 H         1 MOL      0.0375
     54 H       -2.5387    46.6134    78.1887 H         1 MOL      0.0375
     55 H       -5.8820    45.9439    73.7522 H         1 MOL      0.0715
     56 H       -9.0853    45.1502    77.9762 H         1 MOL      0.0609
     57 H      -10.0946    43.2394    79.2926 H         1 MOL      0.0506
     58 H       -9.3570    44.4509    80.3847 H         1 MOL      0.0506
     59 H       -6.4966    41.6858    80.2238 H         1 MOL      0.0997
@<TRIPOS>BOND
     1     1     5    1
     2     1     2    1
     3     1     3    1
     4     1     4    1
     5     5     7    1
     6     5     6    1
     7     7     9    1
     8     7    13    1
     9     7     8    1
    10     9    12    1
    11     9    10    1
    12     9    11    1
    13    12    17    1
    14    13    14    1
    15    13    15    1
    16    13    16    1
    17    35    36   ar
    18    35    34   ar
    19    33    28    1
    20    29    28   ar
    21    29    30   ar
    22    28    27   ar
    23    36    37   ar
    24    30    34    1
    25    30    31   ar
    26    34    38   ar
    27    27    26    1
    28    27    31   ar
    29    26    25    2
    30    31    32    1
    31    25    24    1
    32    24    23    2
    33    37    38   ar
    34    37    39    1
    35    32    23    1
    36    23    19    1
    37    22    19    1
    38    39    40    2
    39    39    44    1
    40    19    20   am
    41    40    41    1
    42    44    43    2
    43    20    21    2
    44    20    18    1
    45    41    42    1
    46    43    42    1
    47    42    45    1
    48    18    17    1
    49    17    46    1
    50    17    47    1
    51    18    48    1
    52    18    49    1
    53    24    50    1
    54    26    51    1
    55    29    52    1
    56    32    53    1
    57    32    54    1
    58    35    55    1
    59    40    56    1
    60    41    57    1
    61    41    58    1
    62    43    59    1
