Inhib_32_acrylamide
     RDKit          3D

 45 48  0  0  0  0  0  0  0  0999 V2000
    1.8129   -0.8965    0.1753 C   0  0  0  0  0  0  0  0  0  0  0  0
    2.6919   -1.9172    0.7222 C   0  0  0  0  0  3  0  0  0  0  0  0
    3.1441   -2.9907    0.0032 N   0  0  0  0  0  0  0  0  0  0  0  0
    2.2939   -3.8011   -0.5487 C   0  0  0  0  0  0  0  0  0  0  0  0
    0.8580   -3.6843   -0.5811 C   0  0  0  0  0  0  0  0  0  0  0  0
    0.0095   -4.7448   -0.7994 N   0  0  0  0  0  0  0  0  0  0  0  0
   -1.2925   -4.3160   -0.8032 C   0  0  0  0  0  0  0  0  0  0  0  0
   -1.2962   -2.9504   -0.5992 C   0  0  0  0  0  0  0  0  0  0  0  0
   -2.4803   -2.0802   -0.5335 C   0  0  0  0  0  0  0  0  0  0  0  0
   -3.7677   -2.4277   -0.8777 C   0  0  0  0  0  0  0  0  0  0  0  0
   -4.8157   -1.0928   -0.6537 S   0  0  0  0  0  0  0  0  0  0  0  0
   -3.4823   -0.1277   -0.0847 C   0  0  0  0  0  0  0  0  0  0  0  0
   -3.6604    1.2500    0.2935 C   0  0  0  0  0  0  0  0  0  0  0  0
   -4.7325    1.6469    1.0164 C   0  0  0  0  0  0  0  0  0  0  0  0
   -4.8376    3.0285    1.4065 C   0  0  0  0  0  3  0  0  0  0  0  0
   -3.8203    3.8445    1.0170 N   0  0  0  0  0  0  0  0  0  0  0  0
   -2.7714    3.3374    0.2961 C   0  0  0  0  0  0  0  0  0  0  0  0
   -2.6324    2.1084   -0.0928 N   0  0  0  0  0  0  0  0  0  0  0  0
   -2.3356   -0.7859   -0.0805 N   0  0  0  0  0  0  0  0  0  0  0  0
    0.0682   -2.5524   -0.4671 C   0  0  0  0  0  0  0  0  0  0  0  0
    0.6024   -1.2358   -0.3172 C   0  0  0  0  0  0  0  0  0  0  0  0
    2.1538    0.4437    0.2971 N   0  0  0  0  0  0  0  0  0  0  0  0
    3.3154    1.1321    0.5521 C   0  0  0  0  0  3  0  0  0  0  0  0
    3.3099    2.5049    0.7829 O   0  0  0  0  0  0  0  0  0  0  0  0
    4.6367    0.5527    0.4422 C   0  0  0  0  0  0  0  0  0  0  0  0
    5.7582    1.0783    0.9534 C   0  0  0  0  0  0  0  0  0  0  0  0
    3.2172   -1.6928    1.6454 H   0  0  0  0  0  0  0  0  0  0  0  0
    2.7200   -4.6900   -1.0455 H   0  0  0  0  0  0  0  0  0  0  0  0
    0.3027   -5.7051   -0.9234 H   0  0  0  0  0  0  0  0  0  0  0  0
   -2.0991   -5.0216   -0.9479 H   0  0  0  0  0  0  0  0  0  0  0  0
   -4.1361   -3.3704   -1.2527 H   0  0  0  0  0  0  0  0  0  0  0  0
   -5.5115    0.9692    1.3443 H   0  0  0  0  0  0  0  0  0  0  0  0
   -5.6432    3.4338    2.0034 H   0  0  0  0  0  0  0  0  0  0  0  0
   -3.8302    4.8138    1.3071 H   0  0  0  0  0  0  0  0  0  0  0  0
   -2.0065    4.0922    0.0495 H   0  0  0  0  0  0  0  0  0  0  0  0
   -0.0448   -0.4256   -0.6454 H   0  0  0  0  0  0  0  0  0  0  0  0
    1.3585    1.0763    0.2339 H   0  0  0  0  0  0  0  0  0  0  0  0
    4.7112   -0.3799   -0.1117 H   0  0  0  0  0  0  0  0  0  0  0  0
    6.7100    0.5750    0.8188 H   0  0  0  0  0  0  0  0  0  0  0  0
    5.7564    2.0049    1.5182 H   0  0  0  0  0  0  0  0  0  0  0  0
    1.8506    3.3042    0.6776 S   0  0  0  0  0  0  0  0  0  0  0  0
    1.9640    3.8383   -1.0460 C   0  0  0  0  0  0  0  0  0  0  0  0
    2.0205    2.9715   -1.7095 H   0  0  0  0  0  0  0  0  0  0  0  0
    1.0779    4.4231   -1.3055 H   0  0  0  0  0  0  0  0  0  0  0  0
    2.8523    4.4591   -1.1890 H   0  0  0  0  0  0  0  0  0  0  0  0
  1  2  1  0
  1 21  2  0
  2  3  1  0
  3  4  2  0
  4  5  1  0
  5  6  1  0
  5 20  2  0
  6  7  1  0
  7  8  2  0
  8  9  1  0
  8 20  1  0
  9 10  2  0
  9 19  1  0
 10 11  1  0
 11 12  1  0
 12 13  1  0
 12 19  2  0
 13 14  2  0
 13 18  1  0
 14 15  1  0
 15 16  1  0
 16 17  1  0
 17 18  2  0
 20 21  1  0
 22 23  1  0
 23 24  1  0
 23 25  1  0
 25 26  2  0
  1 22  1  0
  2 27  1  0
  4 28  1  0
  6 29  1  0
  7 30  1  0
 10 31  1  0
 14 32  1  0
 15 33  1  0
 16 34  1  0
 17 35  1  0
 21 36  1  0
 22 37  1  0
 25 38  1  0
 26 39  1  0
 26 40  1  0
 24 41  1  0
 41 42  1  0
 42 43  1  0
 42 44  1  0
 42 45  1  0
M  RAD  3   2   2  15   2  23   2
M  END
>  <Warhead>  (1) 
acrylamide

>  <Mechanism>  (1) 
Michael addition to Î²-carbon

$$$$
