Inhib_32_acrylamide
     RDKit          3D

 45 48  0  0  0  0  0  0  0  0999 V2000
    3.1166   44.0343   82.4979 C   0  0  0  0  0  0  0  0  0  0  0  0
    4.2349   44.1659   83.4176 C   0  0  0  0  0  3  0  0  0  0  0  0
    5.5436   44.0220   83.0431 N   0  0  0  0  0  0  0  0  0  0  0  0
    5.9361   42.9194   82.4825 C   0  0  0  0  0  0  0  0  0  0  0  0
    5.1292   41.7870   82.1043 C   0  0  0  0  0  0  0  0  0  0  0  0
    5.6314   40.5209   81.9112 N   0  0  0  0  0  0  0  0  0  0  0  0
    4.6289   39.6674   81.5298 C   0  0  0  0  0  0  0  0  0  0  0  0
    3.4539   40.3891   81.4571 C   0  0  0  0  0  0  0  0  0  0  0  0
    2.1305   39.8679   81.0824 C   0  0  0  0  0  0  0  0  0  0  0  0
    1.8662   38.6340   80.5309 C   0  0  0  0  0  0  0  0  0  0  0  0
    0.1864   38.4654   80.2473 S   0  0  0  0  0  0  0  0  0  0  0  0
   -0.0946   40.0540   80.9033 C   0  0  0  0  0  0  0  0  0  0  0  0
   -1.4167   40.6216   80.9551 C   0  0  0  0  0  0  0  0  0  0  0  0
   -2.4855   39.8798   81.3253 C   0  0  0  0  0  0  0  0  0  0  0  0
   -3.7775   40.5095   81.4043 C   0  0  0  0  0  3  0  0  0  0  0  0
   -3.8217   41.8361   81.1032 N   0  0  0  0  0  0  0  0  0  0  0  0
   -2.6752   42.4984   80.7511 C   0  0  0  0  0  0  0  0  0  0  0  0
   -1.4911   41.9799   80.6512 N   0  0  0  0  0  0  0  0  0  0  0  0
    1.0171   40.6532   81.2948 N   0  0  0  0  0  0  0  0  0  0  0  0
    3.7762   41.7331   81.8138 C   0  0  0  0  0  0  0  0  0  0  0  0
    2.9268   42.8818   81.8206 C   0  0  0  0  0  0  0  0  0  0  0  0
    2.1590   45.0370   82.4296 N   0  0  0  0  0  0  0  0  0  0  0  0
    2.1073   46.3589   82.8011 C   0  0  0  0  0  3  0  0  0  0  0  0
    0.9179   47.0807   82.7521 O   0  0  0  0  0  0  0  0  0  0  0  0
    3.2748   47.1565   83.1078 C   0  0  0  0  0  0  0  0  0  0  0  0
    3.2627   48.3344   83.7465 C   0  0  0  0  0  0  0  0  0  0  0  0
    4.0515   44.6466   84.3737 H   0  0  0  0  0  0  0  0  0  0  0  0
    7.0176   42.8349   82.2781 H   0  0  0  0  0  0  0  0  0  0  0  0
    6.5979   40.2544   82.0466 H   0  0  0  0  0  0  0  0  0  0  0  0
    4.8413   38.6230   81.3471 H   0  0  0  0  0  0  0  0  0  0  0  0
    2.5580   37.8464   80.2737 H   0  0  0  0  0  0  0  0  0  0  0  0
   -2.4170   38.8327   81.5946 H   0  0  0  0  0  0  0  0  0  0  0  0
   -4.6833   40.0056   81.7129 H   0  0  0  0  0  0  0  0  0  0  0  0
   -4.7008   42.3296   81.1886 H   0  0  0  0  0  0  0  0  0  0  0  0
   -2.8369   43.5686   80.5412 H   0  0  0  0  0  0  0  0  0  0  0  0
    2.0343   42.8104   81.2030 H   0  0  0  0  0  0  0  0  0  0  0  0
    1.2614   44.7224   82.0661 H   0  0  0  0  0  0  0  0  0  0  0  0
    4.2318   46.7596   82.7781 H   0  0  0  0  0  0  0  0  0  0  0  0
    4.1898   48.8670   83.9313 H   0  0  0  0  0  0  0  0  0  0  0  0
    2.3440   48.7878   84.1043 H   0  0  0  0  0  0  0  0  0  0  0  0
   -0.4370   46.3060   82.1660 S   0  0  0  0  0  0  0  0  0  0  0  0
   -0.3235   46.8402   80.4424 C   0  0  0  0  0  0  0  0  0  0  0  0
    0.6020   46.4734   79.9911 H   0  0  0  0  0  0  0  0  0  0  0  0
   -1.1716   46.4408   79.8804 H   0  0  0  0  0  0  0  0  0  0  0  0
   -0.3436   47.9315   80.3854 H   0  0  0  0  0  0  0  0  0  0  0  0
  1  2  1  0
  1 21  2  0
  2  3  1  0
  3  4  2  0
  4  5  1  0
  5  6  1  0
  5 20  2  0
  6  7  1  0
  7  8  2  0
  8  9  1  0
  8 20  1  0
  9 10  2  0
  9 19  1  0
 10 11  1  0
 11 12  1  0
 12 13  1  0
 12 19  2  0
 13 14  2  0
 13 18  1  0
 14 15  1  0
 15 16  1  0
 16 17  1  0
 17 18  2  0
 20 21  1  0
 22 23  1  0
 23 24  1  0
 23 25  1  0
 25 26  2  0
  1 22  1  0
  2 27  1  0
  4 28  1  0
  6 29  1  0
  7 30  1  0
 10 31  1  0
 14 32  1  0
 15 33  1  0
 16 34  1  0
 17 35  1  0
 21 36  1  0
 22 37  1  0
 25 38  1  0
 26 39  1  0
 26 40  1  0
 24 41  1  0
 41 42  1  0
 42 43  1  0
 42 44  1  0
 42 45  1  0
M  RAD  3   2   2  15   2  23   2
M  END
>  <Warhead>  (1) 
acrylamide

>  <Mechanism>  (1) 
Michael addition to Î²-carbon

$$$$
