Inhib_32_acrylamide_adduct
     RDKit          3D

  0  0  0  0  0  0  0  0  0  0999 V3000
M  V30 BEGIN CTAB
M  V30 COUNTS 43 46 0 0 0
M  V30 BEGIN ATOM
M  V30 1 C 2.572694 -0.821130 0.184069 0
M  V30 2 C 3.238333 -2.030900 -0.258608 0 RAD=2 VAL=3
M  V30 3 N 2.984145 -3.261755 0.285592 0
M  V30 4 C 1.777077 -3.735376 0.304945 0
M  V30 5 C 0.570288 -3.075297 -0.122701 0
M  V30 6 N -0.586583 -3.744679 -0.453035 0
M  V30 7 C -1.565156 -2.850554 -0.790628 0
M  V30 8 C -1.042775 -1.579309 -0.678567 0
M  V30 9 C -1.767162 -0.339317 -0.968470 0
M  V30 10 C -1.246734 0.813814 -1.507897 0
M  V30 11 S -2.478377 1.986139 -1.672343 0
M  V30 12 C -3.651529 0.865458 -1.035522 0
M  V30 13 C -5.036948 1.242294 -0.890579 0
M  V30 14 C -5.906062 0.329795 -0.398816 0
M  V30 15 C -7.290270 0.689389 -0.247693 0 RAD=2 VAL=3
M  V30 16 N -7.627472 1.953938 -0.621076 0
M  V30 17 C -6.669243 2.803383 -1.107958 0
M  V30 18 N -5.410364 2.531590 -1.264098 0
M  V30 19 N -3.127104 -0.312541 -0.722781 0
M  V30 20 C 0.299775 -1.720033 -0.226440 0
M  V30 21 C 1.228778 -0.703759 0.159072 0
M  V30 22 N 3.316130 0.273147 0.597753 0
M  V30 23 C 4.696607 0.407755 0.656511 0
M  V30 24 O 5.526151 -0.408391 0.273845 0
M  V30 25 C 5.099688 1.744759 1.252923 0
M  V30 26 C 6.613388 1.870163 1.343976 0
M  V30 27 S 7.068514 3.478377 2.059831 0
M  V30 28 H 4.132990 -1.953702 -0.868067 0
M  V30 29 H 1.661511 -4.765140 0.685610 0
M  V30 30 H -0.696933 -4.750501 -0.456085 0
M  V30 31 H -2.550277 -3.185025 -1.088591 0
M  V30 32 H -0.233952 1.020722 -1.819089 0
M  V30 33 H -5.596909 -0.669699 -0.111943 0
M  V30 34 H -8.053185 0.025826 0.135797 0
M  V30 35 H -8.590773 2.250190 -0.532708 0
M  V30 36 H -7.063693 3.797552 -1.375351 0
M  V30 37 H 0.784447 0.237374 0.471930 0
M  V30 38 H 2.783148 1.069325 0.926829 0
M  V30 39 H 4.685811 2.537050 0.617062 0
M  V30 40 H 4.648048 1.822077 2.249647 0
M  V30 41 H 7.034309 1.078405 1.972621 0
M  V30 42 H 7.073561 1.789362 0.353557 0
M  V30 43 H 8.396110 3.289222 2.017389 0
M  V30 END ATOM
M  V30 BEGIN BOND
M  V30 1 1 1 2
M  V30 2 2 1 21
M  V30 3 1 2 3
M  V30 4 2 3 4
M  V30 5 1 4 5
M  V30 6 1 5 6
M  V30 7 2 5 20
M  V30 8 1 6 7
M  V30 9 2 7 8
M  V30 10 1 8 9
M  V30 11 1 8 20
M  V30 12 2 9 10
M  V30 13 1 9 19
M  V30 14 1 10 11
M  V30 15 1 11 12
M  V30 16 1 12 13
M  V30 17 2 12 19
M  V30 18 2 13 14
M  V30 19 1 13 18
M  V30 20 1 14 15
M  V30 21 1 15 16
M  V30 22 1 16 17
M  V30 23 2 17 18
M  V30 24 1 20 21
M  V30 25 1 22 23
M  V30 26 2 23 24
M  V30 27 1 23 25
M  V30 28 1 25 26
M  V30 29 1 26 27
M  V30 30 1 1 22
M  V30 31 1 2 28
M  V30 32 1 4 29
M  V30 33 1 6 30
M  V30 34 1 7 31
M  V30 35 1 10 32
M  V30 36 1 14 33
M  V30 37 1 15 34
M  V30 38 1 16 35
M  V30 39 1 17 36
M  V30 40 1 21 37
M  V30 41 1 22 38
M  V30 42 1 25 39
M  V30 43 1 25 40
M  V30 44 1 26 41
M  V30 45 1 26 42
M  V30 46 1 27 43
M  V30 END BOND
M  V30 BEGIN COLLECTION
M  V30 MDLV30/STEABS ATOMS=(0)
M  V30 END COLLECTION
M  V30 END CTAB
M  END
>  <Type>  (1) 
covalent_adduct

>  <Warhead>  (1) 
acrylamide

>  <Mechanism>  (1) 
Michael addition to Î²-carbon

>  <CovalentAtomIdx>  (1) 
26

$$$$
