Inhib_32_acrylamide
     RDKit          3D

  0  0  0  0  0  0  0  0  0  0999 V3000
M  V30 BEGIN CTAB
M  V30 COUNTS 40 43 0 0 0
M  V30 BEGIN ATOM
M  V30 1 C -3.155530 0.246680 0.276417 0
M  V30 2 C -3.873662 1.506103 0.317749 0 RAD=2 VAL=3
M  V30 3 N -3.757676 2.396993 1.351725 0
M  V30 4 C -2.596077 2.856805 1.698545 0
M  V30 5 C -1.311002 2.482046 1.167036 0
M  V30 6 N -0.184491 3.265855 1.277163 0
M  V30 7 C 0.884227 2.633711 0.703217 0
M  V30 8 C 0.451863 1.420060 0.211743 0
M  V30 9 C 1.289217 0.446632 -0.493564 0
M  V30 10 C 0.904833 -0.378549 -1.524559 0
M  V30 11 S 2.229500 -1.330405 -2.032015 0
M  V30 12 C 3.256220 -0.556612 -0.855184 0
M  V30 13 C 4.647885 -0.917596 -0.731256 0
M  V30 14 C 5.402192 -0.273796 0.188738 0
M  V30 15 C 6.790980 -0.621374 0.325096 0 RAD=2 VAL=3
M  V30 16 N 7.250947 -1.597589 -0.504142 0
M  V30 17 C 6.403025 -2.189164 -1.402961 0
M  V30 18 N 5.145578 -1.915288 -1.566875 0
M  V30 19 N 2.620648 0.357389 -0.133310 0
M  V30 20 C -0.930833 1.310364 0.532463 0
M  V30 21 C -1.809053 0.197017 0.350112 0
M  V30 22 N -3.843761 -0.945255 0.101799 0
M  V30 23 C -5.203849 -1.132745 -0.059574 0
M  V30 24 O -6.065542 -0.268868 -0.148162 0
M  V30 25 C -5.556960 -2.581192 -0.146121 0
M  V30 26 C -6.826062 -2.963009 -0.340175 0
M  V30 27 H -4.710576 1.663183 -0.355302 0
M  V30 28 H -2.591519 3.630102 2.486352 0
M  V30 29 H -0.151260 4.180001 1.709669 0
M  V30 30 H 1.862709 3.095454 0.682762 0
M  V30 31 H -0.058879 -0.461405 -2.004049 0
M  V30 32 H 4.997036 0.500193 0.831921 0
M  V30 33 H 7.467522 -0.159527 1.031085 0
M  V30 34 H 8.222566 -1.873105 -0.444435 0
M  V30 35 H 6.890961 -2.963734 -2.017303 0
M  V30 36 H -1.321753 -0.771766 0.280959 0
M  V30 37 H -3.274945 -1.780497 0.119637 0
M  V30 38 H -4.774739 -3.321831 -0.044296 0
M  V30 39 H -7.628321 -2.235859 -0.440541 0
M  V30 40 H -7.091419 -4.012719 -0.400368 0
M  V30 END ATOM
M  V30 BEGIN BOND
M  V30 1 1 1 2
M  V30 2 2 1 21
M  V30 3 1 2 3
M  V30 4 2 3 4
M  V30 5 1 4 5
M  V30 6 1 5 6
M  V30 7 2 5 20
M  V30 8 1 6 7
M  V30 9 2 7 8
M  V30 10 1 8 9
M  V30 11 1 8 20
M  V30 12 2 9 10
M  V30 13 1 9 19
M  V30 14 1 10 11
M  V30 15 1 11 12
M  V30 16 1 12 13
M  V30 17 2 12 19
M  V30 18 2 13 14
M  V30 19 1 13 18
M  V30 20 1 14 15
M  V30 21 1 15 16
M  V30 22 1 16 17
M  V30 23 2 17 18
M  V30 24 1 20 21
M  V30 25 1 22 23
M  V30 26 2 23 24
M  V30 27 1 23 25
M  V30 28 2 25 26
M  V30 29 1 1 22
M  V30 30 1 2 27
M  V30 31 1 4 28
M  V30 32 1 6 29
M  V30 33 1 7 30
M  V30 34 1 10 31
M  V30 35 1 14 32
M  V30 36 1 15 33
M  V30 37 1 16 34
M  V30 38 1 17 35
M  V30 39 1 21 36
M  V30 40 1 22 37
M  V30 41 1 25 38
M  V30 42 1 26 39
M  V30 43 1 26 40
M  V30 END BOND
M  V30 BEGIN COLLECTION
M  V30 MDLV30/STEABS ATOMS=(0)
M  V30 END COLLECTION
M  V30 END CTAB
M  END
>  <Type>  (1) 
pre-reaction

>  <Warhead>  (1) 
acrylamide

$$$$
