_Inhib_32_chloroacetamide
     RDKit          3D

  0  0  0  0  0  0  0  0  0  0999 V3000
M  V30 BEGIN CTAB
M  V30 COUNTS 28 31 0 0 0
M  V30 BEGIN ATOM
M  V30 1 C -0.287200 45.921900 80.377200 0
M  V30 2 N -0.686200 43.532800 80.657100 0
M  V30 3 C 0.174600 44.511600 80.253300 0
M  V30 4 O 1.225400 44.282100 79.678700 0
M  V30 5 H -1.502600 43.862000 81.198700 0
M  V30 6 C -0.682900 42.136500 80.299300 0
M  V30 7 C 0.603700 41.386900 79.982700 0
M  V30 8 N 0.666900 40.639200 78.747500 0
M  V30 9 C -0.138300 39.728700 78.327000 0
M  V30 10 C -1.444800 39.402200 78.918500 0
M  V30 11 N -2.142300 38.313600 78.540700 0
M  V30 12 C -3.350400 38.380400 79.121700 0
M  V30 13 C -3.442200 39.525400 79.889700 0
M  V30 14 C -2.211900 40.181900 79.768000 0
M  V30 15 C -1.893000 41.540600 80.244900 0
M  V30 16 H -1.826300 37.569300 77.879300 0
M  V30 17 C -4.676900 39.942100 80.599400 0
M  V30 18 C -5.112600 39.441300 81.828700 0
M  V30 19 S -6.520500 40.253000 82.257300 0
M  V30 20 C -6.527900 41.209600 80.875800 0
M  V30 21 N -5.480200 40.910700 80.074300 0
M  V30 22 C -7.505300 42.287200 80.603800 0
M  V30 23 C -8.432700 42.627800 81.520800 0
M  V30 24 C -9.436800 43.699600 81.212700 0
M  V30 25 N -9.328300 44.286100 79.897100 0
M  V30 26 C -8.311300 43.865400 78.998500 0
M  V30 27 N -7.473600 42.942500 79.334300 0
M  V30 28 H -9.994500 45.017000 79.608400 0
M  V30 END ATOM
M  V30 BEGIN BOND
M  V30 1 1 6 7
M  V30 2 2 6 15
M  V30 3 1 7 8
M  V30 4 2 8 9
M  V30 5 1 9 10
M  V30 6 1 10 11
M  V30 7 2 10 14
M  V30 8 1 11 12
M  V30 9 2 12 13
M  V30 10 1 13 17
M  V30 11 1 13 14
M  V30 12 2 17 18
M  V30 13 1 17 21
M  V30 14 1 18 19
M  V30 15 1 19 20
M  V30 16 1 20 22
M  V30 17 2 20 21
M  V30 18 2 22 23
M  V30 19 1 22 27
M  V30 20 1 23 24
M  V30 21 1 24 25
M  V30 22 1 25 26
M  V30 23 2 26 27
M  V30 24 1 14 15
M  V30 25 1 2 3
M  V30 26 2 3 4
M  V30 27 1 3 1
M  V30 28 1 6 2
M  V30 29 1 11 16
M  V30 30 1 25 28
M  V30 31 1 2 5
M  V30 END BOND
M  V30 END CTAB
M  END
>  <minimizedAffinity>  (1) 
-6.16556

$$$$
