_Inhib_32_chloroacetamide


 28 31  0  0  0  0  0  0  0  0999 V2000
   -0.2872   45.9219   80.3772 C   0  0  0  0  0  0  0  0  0  0  0  0
   -0.6862   43.5328   80.6571 N   0  0  0  0  0  0  0  0  0  0  0  0
    0.1746   44.5116   80.2533 C   0  0  0  0  0  0  0  0  0  0  0  0
    1.2254   44.2821   79.6787 O   0  0  0  0  0  0  0  0  0  0  0  0
   -1.5026   43.8620   81.1987 H   0  0  0  0  0  0  0  0  0  0  0  0
   -0.6829   42.1365   80.2993 C   0  0  0  0  0  0  0  0  0  0  0  0
    0.6037   41.3869   79.9827 C   0  0  0  0  0  0  0  0  0  0  0  0
    0.6669   40.6392   78.7475 N   0  0  0  0  0  0  0  0  0  0  0  0
   -0.1383   39.7287   78.3270 C   0  0  0  0  0  0  0  0  0  0  0  0
   -1.4448   39.4022   78.9185 C   0  0  0  0  0  0  0  0  0  0  0  0
   -2.1423   38.3136   78.5407 N   0  0  0  0  0  0  0  0  0  0  0  0
   -3.3504   38.3804   79.1217 C   0  0  0  0  0  0  0  0  0  0  0  0
   -3.4422   39.5254   79.8897 C   0  0  0  0  0  0  0  0  0  0  0  0
   -2.2119   40.1819   79.7680 C   0  0  0  0  0  0  0  0  0  0  0  0
   -1.8930   41.5406   80.2449 C   0  0  0  0  0  0  0  0  0  0  0  0
   -1.8263   37.5693   77.8793 H   0  0  0  0  0  0  0  0  0  0  0  0
   -4.6769   39.9421   80.5994 C   0  0  0  0  0  0  0  0  0  0  0  0
   -5.1126   39.4413   81.8287 C   0  0  0  0  0  0  0  0  0  0  0  0
   -6.5205   40.2530   82.2573 S   0  0  0  0  0  0  0  0  0  0  0  0
   -6.5279   41.2096   80.8758 C   0  0  0  0  0  0  0  0  0  0  0  0
   -5.4802   40.9107   80.0743 N   0  0  0  0  0  0  0  0  0  0  0  0
   -7.5053   42.2872   80.6038 C   0  0  0  0  0  0  0  0  0  0  0  0
   -8.4327   42.6278   81.5208 C   0  0  0  0  0  0  0  0  0  0  0  0
   -9.4368   43.6996   81.2127 C   0  0  0  0  0  0  0  0  0  0  0  0
   -9.3283   44.2861   79.8971 N   0  0  0  0  0  0  0  0  0  0  0  0
   -8.3113   43.8654   78.9985 C   0  0  0  0  0  0  0  0  0  0  0  0
   -7.4736   42.9425   79.3343 N   0  0  0  0  0  0  0  0  0  0  0  0
   -9.9945   45.0170   79.6084 H   0  0  0  0  0  0  0  0  0  0  0  0
  6  7  1  0
  6 15  2  0
  7  8  1  0
  8  9  2  0
  9 10  1  0
 10 11  1  0
 10 14  2  0
 11 12  1  0
 12 13  2  0
 13 17  1  0
 13 14  1  0
 17 18  2  0
 17 21  1  0
 18 19  1  0
 19 20  1  0
 20 22  1  0
 20 21  2  0
 22 23  2  0
 22 27  1  0
 23 24  1  0
 24 25  1  0
 25 26  1  0
 26 27  2  0
 14 15  1  0
  2  3  1  0
  3  4  2  0
  3  1  1  0
  6  2  1  0
 11 16  1  0
 25 28  1  0
  2  5  1  0
M  ISO 1   1  13
M  END
> <minimizedAffinity>
-6.16556

$$$$
_Inhib_32_chloroacetamide


 28 31  0  0  0  0  0  0  0  0999 V2000
   -0.0368   45.6701   80.4911 C   0  0  0  0  0  0  0  0  0  0  0  0
    0.8458   47.0822   78.7099 N   0  0  0  0  0  0  0  0  0  0  0  0
   -0.2079   46.7923   79.5272 C   0  0  0  0  0  0  0  0  0  0  0  0
   -1.3066   47.3080   79.4095 O   0  0  0  0  0  0  0  0  0  0  0  0
    1.7388   46.6303   78.9676 H   0  0  0  0  0  0  0  0  0  0  0  0
    0.8370   47.8058   77.4632 C   0  0  0  0  0  0  0  0  0  0  0  0
    2.0376   48.6130   76.9895 C   0  0  0  0  0  0  0  0  0  0  0  0
    1.8192   49.9865   76.5961 N   0  0  0  0  0  0  0  0  0  0  0  0
    0.9866   50.4422   75.7281 C   0  0  0  0  0  0  0  0  0  0  0  0
   -0.0983   49.6748   75.0979 C   0  0  0  0  0  0  0  0  0  0  0  0
   -0.8055   50.1660   74.0620 N   0  0  0  0  0  0  0  0  0  0  0  0
   -1.8214   49.3217   73.8239 C   0  0  0  0  0  0  0  0  0  0  0  0
   -1.7760   48.2656   74.7137 C   0  0  0  0  0  0  0  0  0  0  0  0
   -0.6609   48.4856   75.5306 C   0  0  0  0  0  0  0  0  0  0  0  0
   -0.3083   47.7375   76.7519 C   0  0  0  0  0  0  0  0  0  0  0  0
   -0.6305   51.0639   73.5576 H   0  0  0  0  0  0  0  0  0  0  0  0
   -2.8043   47.1976   74.7747 C   0  0  0  0  0  0  0  0  0  0  0  0
   -2.7335   45.9666   74.1180 C   0  0  0  0  0  0  0  0  0  0  0  0
   -4.0934   45.0706   74.5333 S   0  0  0  0  0  0  0  0  0  0  0  0
   -4.7219   46.2690   75.5296 C   0  0  0  0  0  0  0  0  0  0  0  0
   -3.9205   47.3585   75.5412 N   0  0  0  0  0  0  0  0  0  0  0  0
   -5.9487   46.1273   76.3453 C   0  0  0  0  0  0  0  0  0  0  0  0
   -6.2963   44.9356   76.8708 C   0  0  0  0  0  0  0  0  0  0  0  0
   -7.5621   44.8050   77.6662 C   0  0  0  0  0  0  0  0  0  0  0  0
   -8.3401   46.0157   77.7900 N   0  0  0  0  0  0  0  0  0  0  0  0
   -7.8887   47.2293   77.2050 C   0  0  0  0  0  0  0  0  0  0  0  0
   -6.7828   47.2710   76.5407 N   0  0  0  0  0  0  0  0  0  0  0  0
   -9.2304   45.9988   78.3082 H   0  0  0  0  0  0  0  0  0  0  0  0
  6  7  1  0
  6 15  2  0
  7  8  1  0
  8  9  2  0
  9 10  1  0
 10 11  1  0
 10 14  2  0
 11 12  1  0
 12 13  2  0
 13 17  1  0
 13 14  1  0
 17 18  2  0
 17 21  1  0
 18 19  1  0
 19 20  1  0
 20 22  1  0
 20 21  2  0
 22 23  2  0
 22 27  1  0
 23 24  1  0
 24 25  1  0
 25 26  1  0
 26 27  2  0
 14 15  1  0
  2  3  1  0
  3  4  2  0
  3  1  1  0
  6  2  1  0
 11 16  1  0
 25 28  1  0
  2  5  1  0
M  ISO 1   1  13
M  END
> <minimizedAffinity>
-5.94961

$$$$
_Inhib_32_chloroacetamide


 28 31  0  0  0  0  0  0  0  0999 V2000
   -0.1171   45.7511   80.4457 C   0  0  0  0  0  0  0  0  0  0  0  0
   -1.2972   45.8243   78.3132 N   0  0  0  0  0  0  0  0  0  0  0  0
   -1.1857   46.3213   79.5791 C   0  0  0  0  0  0  0  0  0  0  0  0
   -1.9927   47.0941   80.0673 O   0  0  0  0  0  0  0  0  0  0  0  0
   -0.5050   45.2394   77.9996 H   0  0  0  0  0  0  0  0  0  0  0  0
   -2.4321   45.8843   77.4265 C   0  0  0  0  0  0  0  0  0  0  0  0
   -3.5386   44.8393   77.4591 C   0  0  0  0  0  0  0  0  0  0  0  0
   -3.9093   44.2047   76.2145 N   0  0  0  0  0  0  0  0  0  0  0  0
   -4.2701   44.7635   75.1137 C   0  0  0  0  0  0  0  0  0  0  0  0
   -4.1673   46.1986   74.8086 C   0  0  0  0  0  0  0  0  0  0  0  0
   -4.7392   46.7334   73.7126 N   0  0  0  0  0  0  0  0  0  0  0  0
   -4.3296   48.0082   73.6188 C   0  0  0  0  0  0  0  0  0  0  0  0
   -3.4816   48.3099   74.6671 C   0  0  0  0  0  0  0  0  0  0  0  0
   -3.3820   47.1479   75.4411 C   0  0  0  0  0  0  0  0  0  0  0  0
   -2.4426   46.9143   76.5539 C   0  0  0  0  0  0  0  0  0  0  0  0
   -5.3551   46.2410   73.0275 H   0  0  0  0  0  0  0  0  0  0  0  0
   -2.7869   49.6129   74.8133 C   0  0  0  0  0  0  0  0  0  0  0  0
   -3.4112   50.8612   74.8755 C   0  0  0  0  0  0  0  0  0  0  0  0
   -2.2256   52.0308   75.1015 S   0  0  0  0  0  0  0  0  0  0  0  0
   -0.9663   50.9183   75.1149 C   0  0  0  0  0  0  0  0  0  0  0  0
   -1.4293   49.6608   74.9309 N   0  0  0  0  0  0  0  0  0  0  0  0
    0.4522   51.2561   75.3684 C   0  0  0  0  0  0  0  0  0  0  0  0
    0.9919   52.3894   74.8772 C   0  0  0  0  0  0  0  0  0  0  0  0
    2.4411   52.6972   75.1162 C   0  0  0  0  0  0  0  0  0  0  0  0
    3.1668   51.7009   75.8693 N   0  0  0  0  0  0  0  0  0  0  0  0
    2.5095   50.5377   76.3526 C   0  0  0  0  0  0  0  0  0  0  0  0
    1.2556   50.3418   76.1170 N   0  0  0  0  0  0  0  0  0  0  0  0
    4.1706   51.8359   76.0582 H   0  0  0  0  0  0  0  0  0  0  0  0
  6  7  1  0
  6 15  2  0
  7  8  1  0
  8  9  2  0
  9 10  1  0
 10 11  1  0
 10 14  2  0
 11 12  1  0
 12 13  2  0
 13 17  1  0
 13 14  1  0
 17 18  2  0
 17 21  1  0
 18 19  1  0
 19 20  1  0
 20 22  1  0
 20 21  2  0
 22 23  2  0
 22 27  1  0
 23 24  1  0
 24 25  1  0
 25 26  1  0
 26 27  2  0
 14 15  1  0
  2  3  1  0
  3  4  2  0
  3  1  1  0
  6  2  1  0
 11 16  1  0
 25 28  1  0
  2  5  1  0
M  ISO 1   1  13
M  END
> <minimizedAffinity>
-5.50885

$$$$
_Inhib_32_chloroacetamide


 28 31  0  0  0  0  0  0  0  0999 V2000
    0.4105   45.2152   80.9570 C   0  0  0  0  0  0  0  0  0  0  0  0
   -0.2711   43.6257   82.6758 N   0  0  0  0  0  0  0  0  0  0  0  0
    0.4283   43.8380   81.5235 C   0  0  0  0  0  0  0  0  0  0  0  0
    0.9395   42.9395   80.8768 O   0  0  0  0  0  0  0  0  0  0  0  0
   -0.5862   44.4813   83.1623 H   0  0  0  0  0  0  0  0  0  0  0  0
   -0.7512   42.3769   83.2125 C   0  0  0  0  0  0  0  0  0  0  0  0
   -0.2767   41.8394   84.5554 C   0  0  0  0  0  0  0  0  0  0  0  0
    0.2164   40.4818   84.6069 N   0  0  0  0  0  0  0  0  0  0  0  0
   -0.3738   39.4063   84.2207 C   0  0  0  0  0  0  0  0  0  0  0  0
   -1.6089   39.3467   83.4244 C   0  0  0  0  0  0  0  0  0  0  0  0
   -2.2671   38.1890   83.2220 N   0  0  0  0  0  0  0  0  0  0  0  0
   -3.2405   38.4233   82.3279 C   0  0  0  0  0  0  0  0  0  0  0  0
   -3.2187   39.7502   81.9433 C   0  0  0  0  0  0  0  0  0  0  0  0
   -2.1736   40.3504   82.6552 C   0  0  0  0  0  0  0  0  0  0  0  0
   -1.6332   41.7060   82.4416 C   0  0  0  0  0  0  0  0  0  0  0  0
   -2.0406   37.2609   83.6446 H   0  0  0  0  0  0  0  0  0  0  0  0
   -4.1116   40.3192   80.9037 C   0  0  0  0  0  0  0  0  0  0  0  0
   -4.0183   40.0716   79.5319 C   0  0  0  0  0  0  0  0  0  0  0  0
   -5.2745   40.8832   78.7650 S   0  0  0  0  0  0  0  0  0  0  0  0
   -5.8925   41.5165   80.1936 C   0  0  0  0  0  0  0  0  0  0  0  0
   -5.1458   41.1355   81.2550 N   0  0  0  0  0  0  0  0  0  0  0  0
   -7.1305   42.3218   80.2907 C   0  0  0  0  0  0  0  0  0  0  0  0
   -7.5833   43.0247   79.2334 C   0  0  0  0  0  0  0  0  0  0  0  0
   -8.8216   43.8626   79.3620 C   0  0  0  0  0  0  0  0  0  0  0  0
   -9.4371   43.8563   80.6688 N   0  0  0  0  0  0  0  0  0  0  0  0
   -8.8895   43.0773   81.7233 C   0  0  0  0  0  0  0  0  0  0  0  0
   -7.8248   42.3713   81.5387 N   0  0  0  0  0  0  0  0  0  0  0  0
  -10.2817   44.4217   80.8371 H   0  0  0  0  0  0  0  0  0  0  0  0
  6  7  1  0
  6 15  2  0
  7  8  1  0
  8  9  2  0
  9 10  1  0
 10 11  1  0
 10 14  2  0
 11 12  1  0
 12 13  2  0
 13 17  1  0
 13 14  1  0
 17 18  2  0
 17 21  1  0
 18 19  1  0
 19 20  1  0
 20 22  1  0
 20 21  2  0
 22 23  2  0
 22 27  1  0
 23 24  1  0
 24 25  1  0
 25 26  1  0
 26 27  2  0
 14 15  1  0
  2  3  1  0
  3  4  2  0
  3  1  1  0
  6  2  1  0
 11 16  1  0
 25 28  1  0
  2  5  1  0
M  ISO 1   1  13
M  END
> <minimizedAffinity>
-5.43596

$$$$
_Inhib_32_chloroacetamide


 28 31  0  0  0  0  0  0  0  0999 V2000
    0.7142   44.8851   82.3258 C   0  0  0  0  0  0  0  0  0  0  0  0
   -1.2632   43.6175   82.9807 N   0  0  0  0  0  0  0  0  0  0  0  0
   -0.0963   43.6368   82.2736 C   0  0  0  0  0  0  0  0  0  0  0  0
    0.2350   42.7488   81.5063 O   0  0  0  0  0  0  0  0  0  0  0  0
   -1.3839   44.3955   83.6502 H   0  0  0  0  0  0  0  0  0  0  0  0
   -2.3998   42.7484   82.8058 C   0  0  0  0  0  0  0  0  0  0  0  0
   -3.0657   42.0436   83.9794 C   0  0  0  0  0  0  0  0  0  0  0  0
   -3.2670   40.6153   83.8875 N   0  0  0  0  0  0  0  0  0  0  0  0
   -3.8681   39.9549   82.9619 C   0  0  0  0  0  0  0  0  0  0  0  0
   -4.2938   40.4970   81.6626 C   0  0  0  0  0  0  0  0  0  0  0  0
   -5.0836   39.7962   80.8262 N   0  0  0  0  0  0  0  0  0  0  0  0
   -5.1533   40.4715   79.6683 C   0  0  0  0  0  0  0  0  0  0  0  0
   -4.4015   41.6279   79.7502 C   0  0  0  0  0  0  0  0  0  0  0  0
   -3.8533   41.6519   81.0379 C   0  0  0  0  0  0  0  0  0  0  0  0
   -2.8245   42.5846   81.5350 C   0  0  0  0  0  0  0  0  0  0  0  0
   -5.5291   38.8711   81.0180 H   0  0  0  0  0  0  0  0  0  0  0  0
   -4.1997   42.5593   78.6128 C   0  0  0  0  0  0  0  0  0  0  0  0
   -2.9850   42.7942   77.9639 C   0  0  0  0  0  0  0  0  0  0  0  0
   -3.2611   43.8757   76.7075 S   0  0  0  0  0  0  0  0  0  0  0  0
   -4.9057   44.0068   77.0268 C   0  0  0  0  0  0  0  0  0  0  0  0
   -5.2536   43.2510   78.0931 N   0  0  0  0  0  0  0  0  0  0  0  0
   -5.8624   44.7848   76.2082 C   0  0  0  0  0  0  0  0  0  0  0  0
   -6.1516   46.0658   76.5127 C   0  0  0  0  0  0  0  0  0  0  0  0
   -7.1502   46.8270   75.6909 C   0  0  0  0  0  0  0  0  0  0  0  0
   -7.7534   46.0834   74.6094 N   0  0  0  0  0  0  0  0  0  0  0  0
   -7.3797   44.7353   74.3609 C   0  0  0  0  0  0  0  0  0  0  0  0
   -6.5049   44.1448   75.1040 N   0  0  0  0  0  0  0  0  0  0  0  0
   -8.4607   46.5356   74.0123 H   0  0  0  0  0  0  0  0  0  0  0  0
  6  7  1  0
  6 15  2  0
  7  8  1  0
  8  9  2  0
  9 10  1  0
 10 11  1  0
 10 14  2  0
 11 12  1  0
 12 13  2  0
 13 17  1  0
 13 14  1  0
 17 18  2  0
 17 21  1  0
 18 19  1  0
 19 20  1  0
 20 22  1  0
 20 21  2  0
 22 23  2  0
 22 27  1  0
 23 24  1  0
 24 25  1  0
 25 26  1  0
 26 27  2  0
 14 15  1  0
  2  3  1  0
  3  4  2  0
  3  1  1  0
  6  2  1  0
 11 16  1  0
 25 28  1  0
  2  5  1  0
M  ISO 1   1  13
M  END
> <minimizedAffinity>
-5.40475

$$$$
_Inhib_32_chloroacetamide


 28 31  0  0  0  0  0  0  0  0999 V2000
   -0.2818   45.9165   80.3788 C   0  0  0  0  0  0  0  0  0  0  0  0
    0.1085   43.6953   81.3060 N   0  0  0  0  0  0  0  0  0  0  0  0
    0.3021   44.5516   80.2612 C   0  0  0  0  0  0  0  0  0  0  0  0
    0.7999   44.2111   79.2015 O   0  0  0  0  0  0  0  0  0  0  0  0
   -0.2530   44.1317   82.1702 H   0  0  0  0  0  0  0  0  0  0  0  0
    0.1977   42.2566   81.3105 C   0  0  0  0  0  0  0  0  0  0  0  0
    1.5327   41.5299   81.2263 C   0  0  0  0  0  0  0  0  0  0  0  0
    1.6839   40.5031   80.2205 N   0  0  0  0  0  0  0  0  0  0  0  0
    0.9439   39.4702   80.0211 C   0  0  0  0  0  0  0  0  0  0  0  0
   -0.3670   39.2242   80.6409 C   0  0  0  0  0  0  0  0  0  0  0  0
   -0.9921   38.0361   80.5303 N   0  0  0  0  0  0  0  0  0  0  0  0
   -2.2245   38.1735   81.0439 C   0  0  0  0  0  0  0  0  0  0  0  0
   -2.4057   39.4662   81.4970 C   0  0  0  0  0  0  0  0  0  0  0  0
   -1.2067   40.1438   81.2469 C   0  0  0  0  0  0  0  0  0  0  0  0
   -0.9772   41.5950   81.3756 C   0  0  0  0  0  0  0  0  0  0  0  0
   -0.6119   37.1707   80.0856 H   0  0  0  0  0  0  0  0  0  0  0  0
   -3.6878   39.9722   82.0466 C   0  0  0  0  0  0  0  0  0  0  0  0
   -3.9670   40.1687   83.4013 C   0  0  0  0  0  0  0  0  0  0  0  0
   -5.5161   40.8074   83.5312 S   0  0  0  0  0  0  0  0  0  0  0  0
   -5.7778   40.8151   81.8713 C   0  0  0  0  0  0  0  0  0  0  0  0
   -4.7070   40.3195   81.2101 N   0  0  0  0  0  0  0  0  0  0  0  0
   -6.9862   41.3595   81.2126 C   0  0  0  0  0  0  0  0  0  0  0  0
   -8.2107   40.8794   81.5078 C   0  0  0  0  0  0  0  0  0  0  0  0
   -9.4204   41.4208   80.8038 C   0  0  0  0  0  0  0  0  0  0  0  0
   -9.1540   42.4407   79.8163 N   0  0  0  0  0  0  0  0  0  0  0  0
   -7.8269   42.8885   79.5777 C   0  0  0  0  0  0  0  0  0  0  0  0
   -6.8327   42.3838   80.2282 N   0  0  0  0  0  0  0  0  0  0  0  0
   -9.9343   42.8476   79.2805 H   0  0  0  0  0  0  0  0  0  0  0  0
  6  7  1  0
  6 15  2  0
  7  8  1  0
  8  9  2  0
  9 10  1  0
 10 11  1  0
 10 14  2  0
 11 12  1  0
 12 13  2  0
 13 17  1  0
 13 14  1  0
 17 18  2  0
 17 21  1  0
 18 19  1  0
 19 20  1  0
 20 22  1  0
 20 21  2  0
 22 23  2  0
 22 27  1  0
 23 24  1  0
 24 25  1  0
 25 26  1  0
 26 27  2  0
 14 15  1  0
  2  3  1  0
  3  4  2  0
  3  1  1  0
  6  2  1  0
 11 16  1  0
 25 28  1  0
  2  5  1  0
M  ISO 1   1  13
M  END
> <minimizedAffinity>
-5.35593

$$$$
_Inhib_32_chloroacetamide


 28 31  0  0  0  0  0  0  0  0999 V2000
   -0.1582   45.7924   80.4258 C   0  0  0  0  0  0  0  0  0  0  0  0
   -1.2702   46.0576   78.2720 N   0  0  0  0  0  0  0  0  0  0  0  0
   -1.2963   46.3053   79.6137 C   0  0  0  0  0  0  0  0  0  0  0  0
   -2.2564   46.7945   80.1845 O   0  0  0  0  0  0  0  0  0  0  0  0
   -0.3675   45.7113   77.9069 H   0  0  0  0  0  0  0  0  0  0  0  0
   -2.3691   46.0714   77.3393 C   0  0  0  0  0  0  0  0  0  0  0  0
   -2.3052   46.8409   76.0273 C   0  0  0  0  0  0  0  0  0  0  0  0
   -3.3860   47.7502   75.7208 N   0  0  0  0  0  0  0  0  0  0  0  0
   -4.6473   47.5017   75.6816 C   0  0  0  0  0  0  0  0  0  0  0  0
   -5.2927   46.2722   76.1665 C   0  0  0  0  0  0  0  0  0  0  0  0
   -6.5898   46.0069   75.9186 N   0  0  0  0  0  0  0  0  0  0  0  0
   -6.9264   44.9171   76.6262 C   0  0  0  0  0  0  0  0  0  0  0  0
   -5.8356   44.4643   77.3433 C   0  0  0  0  0  0  0  0  0  0  0  0
   -4.7781   45.3306   77.0420 C   0  0  0  0  0  0  0  0  0  0  0  0
   -3.4642   45.3747   77.7105 C   0  0  0  0  0  0  0  0  0  0  0  0
   -7.2378   46.5677   75.3213 H   0  0  0  0  0  0  0  0  0  0  0  0
   -5.8915   43.3253   78.2926 C   0  0  0  0  0  0  0  0  0  0  0  0
   -7.0190   42.9279   79.0155 C   0  0  0  0  0  0  0  0  0  0  0  0
   -6.6166   41.5615   79.9074 S   0  0  0  0  0  0  0  0  0  0  0  0
   -5.0330   41.5194   79.3468 C   0  0  0  0  0  0  0  0  0  0  0  0
   -4.7923   42.5451   78.4985 N   0  0  0  0  0  0  0  0  0  0  0  0
   -4.0518   40.4614   79.6758 C   0  0  0  0  0  0  0  0  0  0  0  0
   -3.1664   40.6266   80.6788 C   0  0  0  0  0  0  0  0  0  0  0  0
   -2.1569   39.5564   80.9746 C   0  0  0  0  0  0  0  0  0  0  0  0
   -2.2129   38.4004   80.1105 N   0  0  0  0  0  0  0  0  0  0  0  0
   -3.1880   38.3126   79.0808 C   0  0  0  0  0  0  0  0  0  0  0  0
   -4.0334   39.2690   78.8886 N   0  0  0  0  0  0  0  0  0  0  0  0
   -1.5396   37.6318   80.2429 H   0  0  0  0  0  0  0  0  0  0  0  0
  6  7  1  0
  6 15  2  0
  7  8  1  0
  8  9  2  0
  9 10  1  0
 10 11  1  0
 10 14  2  0
 11 12  1  0
 12 13  2  0
 13 17  1  0
 13 14  1  0
 17 18  2  0
 17 21  1  0
 18 19  1  0
 19 20  1  0
 20 22  1  0
 20 21  2  0
 22 23  2  0
 22 27  1  0
 23 24  1  0
 24 25  1  0
 25 26  1  0
 26 27  2  0
 14 15  1  0
  2  3  1  0
  3  4  2  0
  3  1  1  0
  6  2  1  0
 11 16  1  0
 25 28  1  0
  2  5  1  0
M  ISO 1   1  13
M  END
> <minimizedAffinity>
-5.32936

$$$$
_Inhib_32_chloroacetamide


 28 31  0  0  0  0  0  0  0  0999 V2000
   -0.0173   45.6505   80.5035 C   0  0  0  0  0  0  0  0  0  0  0  0
   -1.2114   43.6561   81.2396 N   0  0  0  0  0  0  0  0  0  0  0  0
   -0.1482   44.1679   80.5543 C   0  0  0  0  0  0  0  0  0  0  0  0
    0.6035   43.4848   79.8796 O   0  0  0  0  0  0  0  0  0  0  0  0
   -1.7201   44.3339   81.8311 H   0  0  0  0  0  0  0  0  0  0  0  0
   -1.7995   42.3449   81.1272 C   0  0  0  0  0  0  0  0  0  0  0  0
   -1.2103   41.1321   81.8339 C   0  0  0  0  0  0  0  0  0  0  0  0
   -0.9486   39.9487   81.0463 N   0  0  0  0  0  0  0  0  0  0  0  0
   -1.7644   39.2968   80.2956 C   0  0  0  0  0  0  0  0  0  0  0  0
   -3.1044   39.7495   79.8926 C   0  0  0  0  0  0  0  0  0  0  0  0
   -3.9704   38.9311   79.2642 N   0  0  0  0  0  0  0  0  0  0  0  0
   -5.0227   39.6691   78.8774 C   0  0  0  0  0  0  0  0  0  0  0  0
   -4.8426   40.9847   79.2594 C   0  0  0  0  0  0  0  0  0  0  0  0
   -3.6109   41.0381   79.9222 C   0  0  0  0  0  0  0  0  0  0  0  0
   -2.8939   42.2569   80.3418 C   0  0  0  0  0  0  0  0  0  0  0  0
   -3.8363   37.9140   79.0677 H   0  0  0  0  0  0  0  0  0  0  0  0
   -5.7845   42.0775   78.9124 C   0  0  0  0  0  0  0  0  0  0  0  0
   -7.0683   42.2382   79.4394 C   0  0  0  0  0  0  0  0  0  0  0  0
   -7.7281   43.6438   78.7962 S   0  0  0  0  0  0  0  0  0  0  0  0
   -6.3675   44.0002   77.8767 C   0  0  0  0  0  0  0  0  0  0  0  0
   -5.4149   43.0530   78.0343 N   0  0  0  0  0  0  0  0  0  0  0  0
   -6.2003   45.2237   77.0607 C   0  0  0  0  0  0  0  0  0  0  0  0
   -4.9732   45.7068   76.7816 C   0  0  0  0  0  0  0  0  0  0  0  0
   -4.8256   46.9678   75.9816 C   0  0  0  0  0  0  0  0  0  0  0  0
   -6.0649   47.5903   75.5779 N   0  0  0  0  0  0  0  0  0  0  0  0
   -7.3138   47.0023   75.9146 C   0  0  0  0  0  0  0  0  0  0  0  0
   -7.3660   45.9090   76.5987 N   0  0  0  0  0  0  0  0  0  0  0  0
   -6.0426   48.4687   75.0399 H   0  0  0  0  0  0  0  0  0  0  0  0
  6  7  1  0
  6 15  2  0
  7  8  1  0
  8  9  2  0
  9 10  1  0
 10 11  1  0
 10 14  2  0
 11 12  1  0
 12 13  2  0
 13 17  1  0
 13 14  1  0
 17 18  2  0
 17 21  1  0
 18 19  1  0
 19 20  1  0
 20 22  1  0
 20 21  2  0
 22 23  2  0
 22 27  1  0
 23 24  1  0
 24 25  1  0
 25 26  1  0
 26 27  2  0
 14 15  1  0
  2  3  1  0
  3  4  2  0
  3  1  1  0
  6  2  1  0
 11 16  1  0
 25 28  1  0
  2  5  1  0
M  ISO 1   1  13
M  END
> <minimizedAffinity>
-5.31014

$$$$
_Inhib_32_chloroacetamide


 28 31  0  0  0  0  0  0  0  0999 V2000
    0.4861   45.1372   81.0929 C   0  0  0  0  0  0  0  0  0  0  0  0
    0.3552   43.9066   83.1938 N   0  0  0  0  0  0  0  0  0  0  0  0
    0.8000   43.9282   81.9039 C   0  0  0  0  0  0  0  0  0  0  0  0
    1.3094   42.9652   81.3563 O   0  0  0  0  0  0  0  0  0  0  0  0
    0.0142   44.8124   83.5561 H   0  0  0  0  0  0  0  0  0  0  0  0
    0.1609   42.7655   84.0529 C   0  0  0  0  0  0  0  0  0  0  0  0
    1.1354   42.4209   85.1706 C   0  0  0  0  0  0  0  0  0  0  0  0
    1.6535   41.0728   85.2273 N   0  0  0  0  0  0  0  0  0  0  0  0
    0.9948   39.9687   85.2637 C   0  0  0  0  0  0  0  0  0  0  0  0
   -0.4496   39.8257   85.0264 C   0  0  0  0  0  0  0  0  0  0  0  0
   -1.0972   38.6697   85.2687 N   0  0  0  0  0  0  0  0  0  0  0  0
   -2.3478   38.7954   84.7976 C   0  0  0  0  0  0  0  0  0  0  0  0
   -2.5194   40.0491   84.2427 C   0  0  0  0  0  0  0  0  0  0  0  0
   -1.3002   40.7192   84.3969 C   0  0  0  0  0  0  0  0  0  0  0  0
   -0.9286   42.0123   83.7925 C   0  0  0  0  0  0  0  0  0  0  0  0
   -0.6949   37.8089   85.7027 H   0  0  0  0  0  0  0  0  0  0  0  0
   -3.7630   40.4818   83.5586 C   0  0  0  0  0  0  0  0  0  0  0  0
   -4.0095   41.7636   83.0606 C   0  0  0  0  0  0  0  0  0  0  0  0
   -5.5191   41.7588   82.3219 S   0  0  0  0  0  0  0  0  0  0  0  0
   -5.8063   40.1371   82.6556 C   0  0  0  0  0  0  0  0  0  0  0  0
   -4.7748   39.5939   83.3415 N   0  0  0  0  0  0  0  0  0  0  0  0
   -6.9934   39.3812   82.1974 C   0  0  0  0  0  0  0  0  0  0  0  0
   -8.1706   39.4820   82.8463 C   0  0  0  0  0  0  0  0  0  0  0  0
   -9.3535   38.6810   82.3868 C   0  0  0  0  0  0  0  0  0  0  0  0
   -9.1124   37.8216   81.2512 N   0  0  0  0  0  0  0  0  0  0  0  0
   -7.8363   37.7868   80.6275 C   0  0  0  0  0  0  0  0  0  0  0  0
   -6.8645   38.5113   81.0711 N   0  0  0  0  0  0  0  0  0  0  0  0
   -9.8737   37.2288   80.8898 H   0  0  0  0  0  0  0  0  0  0  0  0
  6  7  1  0
  6 15  2  0
  7  8  1  0
  8  9  2  0
  9 10  1  0
 10 11  1  0
 10 14  2  0
 11 12  1  0
 12 13  2  0
 13 17  1  0
 13 14  1  0
 17 18  2  0
 17 21  1  0
 18 19  1  0
 19 20  1  0
 20 22  1  0
 20 21  2  0
 22 23  2  0
 22 27  1  0
 23 24  1  0
 24 25  1  0
 25 26  1  0
 26 27  2  0
 14 15  1  0
  2  3  1  0
  3  4  2  0
  3  1  1  0
  6  2  1  0
 11 16  1  0
 25 28  1  0
  2  5  1  0
M  ISO 1   1  13
M  END
> <minimizedAffinity>
-5.19559

$$$$
_Inhib_32_chloroacetamide


 28 31  0  0  0  0  0  0  0  0999 V2000
    0.5705   45.0492   81.2856 C   0  0  0  0  0  0  0  0  0  0  0  0
   -0.6954   45.9874   79.4247 N   0  0  0  0  0  0  0  0  0  0  0  0
    0.3952   45.2707   79.8234 C   0  0  0  0  0  0  0  0  0  0  0  0
    1.2863   44.9315   79.0633 O   0  0  0  0  0  0  0  0  0  0  0  0
   -1.4100   46.1423   80.1551 H   0  0  0  0  0  0  0  0  0  0  0  0
   -0.9042   46.6763   78.1759 C   0  0  0  0  0  0  0  0  0  0  0  0
    0.2088   47.4523   77.4856 C   0  0  0  0  0  0  0  0  0  0  0  0
   -0.0583   48.8174   77.0933 N   0  0  0  0  0  0  0  0  0  0  0  0
   -1.0190   49.2612   76.3624 C   0  0  0  0  0  0  0  0  0  0  0  0
   -2.2013   48.4929   75.9441 C   0  0  0  0  0  0  0  0  0  0  0  0
   -3.0660   48.9656   75.0259 N   0  0  0  0  0  0  0  0  0  0  0  0
   -4.1158   48.1302   74.9849 C   0  0  0  0  0  0  0  0  0  0  0  0
   -3.9335   47.0985   75.8858 C   0  0  0  0  0  0  0  0  0  0  0  0
   -2.6959   47.3245   76.4994 C   0  0  0  0  0  0  0  0  0  0  0  0
   -2.1525   46.6053   77.6669 C   0  0  0  0  0  0  0  0  0  0  0  0
   -2.9684   49.8465   74.4730 H   0  0  0  0  0  0  0  0  0  0  0  0
   -4.9479   46.0479   76.1484 C   0  0  0  0  0  0  0  0  0  0  0  0
   -6.0655   45.7841   75.3527 C   0  0  0  0  0  0  0  0  0  0  0  0
   -6.8838   44.4735   76.0139 S   0  0  0  0  0  0  0  0  0  0  0  0
   -5.7957   44.2847   77.2806 C   0  0  0  0  0  0  0  0  0  0  0  0
   -4.8195   45.2192   77.2236 N   0  0  0  0  0  0  0  0  0  0  0  0
   -5.8520   43.1974   78.2831 C   0  0  0  0  0  0  0  0  0  0  0  0
   -4.8350   42.3222   78.4124 C   0  0  0  0  0  0  0  0  0  0  0  0
   -4.9259   41.2059   79.4112 C   0  0  0  0  0  0  0  0  0  0  0  0
   -6.1555   41.1540   80.1674 N   0  0  0  0  0  0  0  0  0  0  0  0
   -7.1712   42.1268   79.9655 C   0  0  0  0  0  0  0  0  0  0  0  0
   -7.0214   43.0670   79.0939 N   0  0  0  0  0  0  0  0  0  0  0  0
   -6.2965   40.4047   80.8603 H   0  0  0  0  0  0  0  0  0  0  0  0
  6  7  1  0
  6 15  2  0
  7  8  1  0
  8  9  2  0
  9 10  1  0
 10 11  1  0
 10 14  2  0
 11 12  1  0
 12 13  2  0
 13 17  1  0
 13 14  1  0
 17 18  2  0
 17 21  1  0
 18 19  1  0
 19 20  1  0
 20 22  1  0
 20 21  2  0
 22 23  2  0
 22 27  1  0
 23 24  1  0
 24 25  1  0
 25 26  1  0
 26 27  2  0
 14 15  1  0
  2  3  1  0
  3  4  2  0
  3  1  1  0
  6  2  1  0
 11 16  1  0
 25 28  1  0
  2  5  1  0
M  ISO 1   1  13
M  END
> <minimizedAffinity>
-5.18642

$$$$
_Inhib_32_chloroacetamide


 28 31  0  0  0  0  0  0  0  0999 V2000
    0.0150   45.6178   80.5253 C   0  0  0  0  0  0  0  0  0  0  0  0
    1.1347   46.9969   78.8549 N   0  0  0  0  0  0  0  0  0  0  0  0
   -0.0155   46.7350   79.5410 C   0  0  0  0  0  0  0  0  0  0  0  0
   -1.0811   47.2713   79.2885 O   0  0  0  0  0  0  0  0  0  0  0  0
    1.9806   46.5296   79.2212 H   0  0  0  0  0  0  0  0  0  0  0  0
    1.2911   47.7099   77.6120 C   0  0  0  0  0  0  0  0  0  0  0  0
    2.4770   48.6281   77.3513 C   0  0  0  0  0  0  0  0  0  0  0  0
    2.2067   49.9717   76.8923 N   0  0  0  0  0  0  0  0  0  0  0  0
    1.5121   50.3395   75.8742 C   0  0  0  0  0  0  0  0  0  0  0  0
    0.6425   49.4666   75.0710 C   0  0  0  0  0  0  0  0  0  0  0  0
    0.0987   49.8811   73.9105 N   0  0  0  0  0  0  0  0  0  0  0  0
   -0.7696   48.9404   73.5072 C   0  0  0  0  0  0  0  0  0  0  0  0
   -0.7917   47.8983   74.4142 C   0  0  0  0  0  0  0  0  0  0  0  0
    0.1245   48.2303   75.4191 C   0  0  0  0  0  0  0  0  0  0  0  0
    0.3113   47.5265   76.7017 C   0  0  0  0  0  0  0  0  0  0  0  0
    0.2790   50.7892   73.4268 H   0  0  0  0  0  0  0  0  0  0  0  0
   -1.7069   46.7352   74.3076 C   0  0  0  0  0  0  0  0  0  0  0  0
   -1.3106   45.4001   74.1974 C   0  0  0  0  0  0  0  0  0  0  0  0
   -2.6918   44.4431   74.1651 S   0  0  0  0  0  0  0  0  0  0  0  0
   -3.7410   45.7494   74.2937 C   0  0  0  0  0  0  0  0  0  0  0  0
   -3.0580   46.9158   74.3433 N   0  0  0  0  0  0  0  0  0  0  0  0
   -5.2121   45.6386   74.4126 C   0  0  0  0  0  0  0  0  0  0  0  0
   -5.7988   44.4500   74.6580 C   0  0  0  0  0  0  0  0  0  0  0  0
   -7.2939   44.3523   74.7407 C   0  0  0  0  0  0  0  0  0  0  0  0
   -8.0055   45.5904   74.5236 N   0  0  0  0  0  0  0  0  0  0  0  0
   -7.2988   46.7980   74.2769 C   0  0  0  0  0  0  0  0  0  0  0  0
   -6.0090   46.8103   74.2286 N   0  0  0  0  0  0  0  0  0  0  0  0
   -9.0355   45.5975   74.5487 H   0  0  0  0  0  0  0  0  0  0  0  0
  6  7  1  0
  6 15  2  0
  7  8  1  0
  8  9  2  0
  9 10  1  0
 10 11  1  0
 10 14  2  0
 11 12  1  0
 12 13  2  0
 13 17  1  0
 13 14  1  0
 17 18  2  0
 17 21  1  0
 18 19  1  0
 19 20  1  0
 20 22  1  0
 20 21  2  0
 22 23  2  0
 22 27  1  0
 23 24  1  0
 24 25  1  0
 25 26  1  0
 26 27  2  0
 14 15  1  0
  2  3  1  0
  3  4  2  0
  3  1  1  0
  6  2  1  0
 11 16  1  0
 25 28  1  0
  2  5  1  0
M  ISO 1   1  13
M  END
> <minimizedAffinity>
-5.16334

$$$$
_Inhib_32_chloroacetamide


 28 31  0  0  0  0  0  0  0  0999 V2000
    0.3087   45.3196   80.8092 C   0  0  0  0  0  0  0  0  0  0  0  0
   -1.2764   46.3837   79.2923 N   0  0  0  0  0  0  0  0  0  0  0  0
   -0.6958   45.2230   79.7139 C   0  0  0  0  0  0  0  0  0  0  0  0
   -0.8558   44.1529   79.1516 O   0  0  0  0  0  0  0  0  0  0  0  0
   -1.1175   47.2016   79.9037 H   0  0  0  0  0  0  0  0  0  0  0  0
   -1.9452   46.6457   78.0425 C   0  0  0  0  0  0  0  0  0  0  0  0
   -3.3263   46.0854   77.7327 C   0  0  0  0  0  0  0  0  0  0  0  0
   -3.5051   45.3705   76.4893 N   0  0  0  0  0  0  0  0  0  0  0  0
   -3.2405   45.7717   75.2963 C   0  0  0  0  0  0  0  0  0  0  0  0
   -2.4776   46.9803   74.9494 C   0  0  0  0  0  0  0  0  0  0  0  0
   -2.4054   47.4345   73.6833 N   0  0  0  0  0  0  0  0  0  0  0  0
   -1.5107   48.4348   73.6585 C   0  0  0  0  0  0  0  0  0  0  0  0
   -0.9938   48.6374   74.9238 C   0  0  0  0  0  0  0  0  0  0  0  0
   -1.6219   47.7073   75.7602 C   0  0  0  0  0  0  0  0  0  0  0  0
   -1.2626   47.4033   77.1580 C   0  0  0  0  0  0  0  0  0  0  0  0
   -2.9150   47.0542   72.8546 H   0  0  0  0  0  0  0  0  0  0  0  0
    0.0808   49.6151   75.2256 C   0  0  0  0  0  0  0  0  0  0  0  0
    0.0287   50.9849   74.9562 C   0  0  0  0  0  0  0  0  0  0  0  0
    1.4453   51.6867   75.5267 S   0  0  0  0  0  0  0  0  0  0  0  0
    2.0727   50.2354   76.0957 C   0  0  0  0  0  0  0  0  0  0  0  0
    1.2272   49.2103   75.8430 N   0  0  0  0  0  0  0  0  0  0  0  0
    3.3449   50.1031   76.8404 C   0  0  0  0  0  0  0  0  0  0  0  0
    4.0044   48.9281   76.8800 C   0  0  0  0  0  0  0  0  0  0  0  0
    5.2750   48.8051   77.6690 C   0  0  0  0  0  0  0  0  0  0  0  0
    5.6891   50.0034   78.3611 N   0  0  0  0  0  0  0  0  0  0  0  0
    4.9304   51.1999   78.2547 C   0  0  0  0  0  0  0  0  0  0  0  0
    3.8500   51.2363   77.5493 N   0  0  0  0  0  0  0  0  0  0  0  0
    6.5435   49.9900   78.9368 H   0  0  0  0  0  0  0  0  0  0  0  0
  6  7  1  0
  6 15  2  0
  7  8  1  0
  8  9  2  0
  9 10  1  0
 10 11  1  0
 10 14  2  0
 11 12  1  0
 12 13  2  0
 13 17  1  0
 13 14  1  0
 17 18  2  0
 17 21  1  0
 18 19  1  0
 19 20  1  0
 20 22  1  0
 20 21  2  0
 22 23  2  0
 22 27  1  0
 23 24  1  0
 24 25  1  0
 25 26  1  0
 26 27  2  0
 14 15  1  0
  2  3  1  0
  3  4  2  0
  3  1  1  0
  6  2  1  0
 11 16  1  0
 25 28  1  0
  2  5  1  0
M  ISO 1   1  13
M  END
> <minimizedAffinity>
-5.02397

$$$$
_Inhib_32_chloroacetamide


 28 31  0  0  0  0  0  0  0  0999 V2000
    0.3613   45.2658   80.8813 C   0  0  0  0  0  0  0  0  0  0  0  0
   -0.0730   43.6088   82.6167 N   0  0  0  0  0  0  0  0  0  0  0  0
    0.6023   43.9203   81.4725 C   0  0  0  0  0  0  0  0  0  0  0  0
    1.2715   43.1128   80.8505 O   0  0  0  0  0  0  0  0  0  0  0  0
   -0.5385   44.4053   83.0825 H   0  0  0  0  0  0  0  0  0  0  0  0
   -0.3437   42.3046   83.1675 C   0  0  0  0  0  0  0  0  0  0  0  0
    0.2274   41.8590   84.5065 C   0  0  0  0  0  0  0  0  0  0  0  0
    0.9282   40.5960   84.5587 N   0  0  0  0  0  0  0  0  0  0  0  0
    0.5091   39.4382   84.1874 C   0  0  0  0  0  0  0  0  0  0  0  0
   -0.7119   39.1791   83.4095 C   0  0  0  0  0  0  0  0  0  0  0  0
   -1.1829   37.9309   83.2235 N   0  0  0  0  0  0  0  0  0  0  0  0
   -2.1929   38.0023   82.3424 C   0  0  0  0  0  0  0  0  0  0  0  0
   -2.3850   39.3131   81.9497 C   0  0  0  0  0  0  0  0  0  0  0  0
   -1.4376   40.0756   82.6429 C   0  0  0  0  0  0  0  0  0  0  0  0
   -1.1197   41.4974   82.4135 C   0  0  0  0  0  0  0  0  0  0  0  0
   -0.8077   37.0533   83.6481 H   0  0  0  0  0  0  0  0  0  0  0  0
   -3.3701   39.7266   80.9200 C   0  0  0  0  0  0  0  0  0  0  0  0
   -3.2604   39.4809   79.5491 C   0  0  0  0  0  0  0  0  0  0  0  0
   -4.6376   40.0812   78.7959 S   0  0  0  0  0  0  0  0  0  0  0  0
   -5.3243   40.6281   80.2288 C   0  0  0  0  0  0  0  0  0  0  0  0
   -4.5121   40.3782   81.2811 N   0  0  0  0  0  0  0  0  0  0  0  0
   -6.6698   41.2348   80.3391 C   0  0  0  0  0  0  0  0  0  0  0  0
   -7.6510   40.6208   81.0299 C   0  0  0  0  0  0  0  0  0  0  0  0
   -9.0183   41.2352   81.1013 C   0  0  0  0  0  0  0  0  0  0  0  0
   -9.1751   42.4757   80.3780 N   0  0  0  0  0  0  0  0  0  0  0  0
   -8.0785   43.0515   79.6819 C   0  0  0  0  0  0  0  0  0  0  0  0
   -6.9254   42.4716   79.6706 N   0  0  0  0  0  0  0  0  0  0  0  0
  -10.0910   42.9474   80.3678 H   0  0  0  0  0  0  0  0  0  0  0  0
  6  7  1  0
  6 15  2  0
  7  8  1  0
  8  9  2  0
  9 10  1  0
 10 11  1  0
 10 14  2  0
 11 12  1  0
 12 13  2  0
 13 17  1  0
 13 14  1  0
 17 18  2  0
 17 21  1  0
 18 19  1  0
 19 20  1  0
 20 22  1  0
 20 21  2  0
 22 23  2  0
 22 27  1  0
 23 24  1  0
 24 25  1  0
 25 26  1  0
 26 27  2  0
 14 15  1  0
  2  3  1  0
  3  4  2  0
  3  1  1  0
  6  2  1  0
 11 16  1  0
 25 28  1  0
  2  5  1  0
M  ISO 1   1  13
M  END
> <minimizedAffinity>
-4.98801

$$$$
_Inhib_32_chloroacetamide


 28 31  0  0  0  0  0  0  0  0999 V2000
   -0.1266   45.7607   80.4409 C   0  0  0  0  0  0  0  0  0  0  0  0
   -1.0331   43.4992   80.3418 N   0  0  0  0  0  0  0  0  0  0  0  0
   -1.2174   44.8214   80.0590 C   0  0  0  0  0  0  0  0  0  0  0  0
   -2.2704   45.2757   79.6445 O   0  0  0  0  0  0  0  0  0  0  0  0
   -0.0707   43.2383   80.6134 H   0  0  0  0  0  0  0  0  0  0  0  0
   -2.0283   42.4628   80.4565 C   0  0  0  0  0  0  0  0  0  0  0  0
   -3.1052   42.2568   79.4004 C   0  0  0  0  0  0  0  0  0  0  0  0
   -4.4811   42.1924   79.8381 N   0  0  0  0  0  0  0  0  0  0  0  0
   -4.9980   41.4176   80.7251 C   0  0  0  0  0  0  0  0  0  0  0  0
   -4.2466   40.5684   81.6619 C   0  0  0  0  0  0  0  0  0  0  0  0
   -4.8581   39.6456   82.4294 N   0  0  0  0  0  0  0  0  0  0  0  0
   -3.9484   39.1618   83.2895 C   0  0  0  0  0  0  0  0  0  0  0  0
   -2.7278   39.7746   83.0801 C   0  0  0  0  0  0  0  0  0  0  0  0
   -2.9145   40.6756   82.0252 C   0  0  0  0  0  0  0  0  0  0  0  0
   -1.9562   41.6989   81.5671 C   0  0  0  0  0  0  0  0  0  0  0  0
   -5.8679   39.3799   82.3994 H   0  0  0  0  0  0  0  0  0  0  0  0
   -1.5291   39.5267   83.9187 C   0  0  0  0  0  0  0  0  0  0  0  0
   -0.2058   39.7327   83.5212 C   0  0  0  0  0  0  0  0  0  0  0  0
    0.7957   39.3726   84.8220 S   0  0  0  0  0  0  0  0  0  0  0  0
   -0.4785   38.9715   85.8416 C   0  0  0  0  0  0  0  0  0  0  0  0
   -1.6650   39.0887   85.2028 N   0  0  0  0  0  0  0  0  0  0  0  0
   -0.3320   38.6101   87.2693 C   0  0  0  0  0  0  0  0  0  0  0  0
   -1.2624   37.8593   87.8920 C   0  0  0  0  0  0  0  0  0  0  0  0
   -1.1131   37.5324   89.3489 C   0  0  0  0  0  0  0  0  0  0  0  0
    0.0560   38.0894   89.9889 N   0  0  0  0  0  0  0  0  0  0  0  0
    0.9867   38.8657   89.2475 C   0  0  0  0  0  0  0  0  0  0  0  0
    0.7994   39.0998   87.9920 N   0  0  0  0  0  0  0  0  0  0  0  0
    0.2164   37.9212   90.9927 H   0  0  0  0  0  0  0  0  0  0  0  0
  6  7  1  0
  6 15  2  0
  7  8  1  0
  8  9  2  0
  9 10  1  0
 10 11  1  0
 10 14  2  0
 11 12  1  0
 12 13  2  0
 13 17  1  0
 13 14  1  0
 17 18  2  0
 17 21  1  0
 18 19  1  0
 19 20  1  0
 20 22  1  0
 20 21  2  0
 22 23  2  0
 22 27  1  0
 23 24  1  0
 24 25  1  0
 25 26  1  0
 26 27  2  0
 14 15  1  0
  2  3  1  0
  3  4  2  0
  3  1  1  0
  6  2  1  0
 11 16  1  0
 25 28  1  0
  2  5  1  0
M  ISO 1   1  13
M  END
> <minimizedAffinity>
-4.97396

$$$$
_Inhib_32_chloroacetamide


 28 31  0  0  0  0  0  0  0  0999 V2000
   -1.6477   47.2611   81.1701 C   0  0  0  0  0  0  0  0  0  0  0  0
   -1.8016   45.5694   79.4208 N   0  0  0  0  0  0  0  0  0  0  0  0
   -1.4838   46.8559   79.7464 C   0  0  0  0  0  0  0  0  0  0  0  0
   -1.2118   47.7075   78.9172 O   0  0  0  0  0  0  0  0  0  0  0  0
   -1.9366   44.9336   80.2243 H   0  0  0  0  0  0  0  0  0  0  0  0
   -2.1183   45.0283   78.1228 C   0  0  0  0  0  0  0  0  0  0  0  0
   -1.0377   44.6629   77.1147 C   0  0  0  0  0  0  0  0  0  0  0  0
   -1.1514   45.1949   75.7756 N   0  0  0  0  0  0  0  0  0  0  0  0
   -2.1447   45.1003   74.9641 C   0  0  0  0  0  0  0  0  0  0  0  0
   -3.4890   44.6139   75.3100 C   0  0  0  0  0  0  0  0  0  0  0  0
   -4.4179   44.3656   74.3666 N   0  0  0  0  0  0  0  0  0  0  0  0
   -5.5767   44.1066   74.9924 C   0  0  0  0  0  0  0  0  0  0  0  0
   -5.4020   44.1849   76.3608 C   0  0  0  0  0  0  0  0  0  0  0  0
   -4.0549   44.5029   76.5691 C   0  0  0  0  0  0  0  0  0  0  0  0
   -3.4326   44.8834   77.8511 C   0  0  0  0  0  0  0  0  0  0  0  0
   -4.2825   44.4089   73.3317 H   0  0  0  0  0  0  0  0  0  0  0  0
   -6.5064   44.0339   77.3403 C   0  0  0  0  0  0  0  0  0  0  0  0
   -7.7348   44.6969   77.2845 C   0  0  0  0  0  0  0  0  0  0  0  0
   -8.6788   44.1629   78.5683 S   0  0  0  0  0  0  0  0  0  0  0  0
   -7.5028   43.1115   79.1474 C   0  0  0  0  0  0  0  0  0  0  0  0
   -6.3850   43.1698   78.3880 N   0  0  0  0  0  0  0  0  0  0  0  0
   -7.6878   42.1890   80.2899 C   0  0  0  0  0  0  0  0  0  0  0  0
   -8.7344   41.3405   80.3316 C   0  0  0  0  0  0  0  0  0  0  0  0
   -8.9235   40.4372   81.5149 C   0  0  0  0  0  0  0  0  0  0  0  0
   -7.9348   40.5740   82.5590 N   0  0  0  0  0  0  0  0  0  0  0  0
   -6.8606   41.4940   82.4230 C   0  0  0  0  0  0  0  0  0  0  0  0
   -6.7546   42.2346   81.3711 N   0  0  0  0  0  0  0  0  0  0  0  0
   -8.0092   39.9981   83.4101 H   0  0  0  0  0  0  0  0  0  0  0  0
  6  7  1  0
  6 15  2  0
  7  8  1  0
  8  9  2  0
  9 10  1  0
 10 11  1  0
 10 14  2  0
 11 12  1  0
 12 13  2  0
 13 17  1  0
 13 14  1  0
 17 18  2  0
 17 21  1  0
 18 19  1  0
 19 20  1  0
 20 22  1  0
 20 21  2  0
 22 23  2  0
 22 27  1  0
 23 24  1  0
 24 25  1  0
 25 26  1  0
 26 27  2  0
 14 15  1  0
  2  3  1  0
  3  4  2  0
  3  1  1  0
  6  2  1  0
 11 16  1  0
 25 28  1  0
  2  5  1  0
M  ISO 1   1  13
M  END
> <minimizedAffinity>
-4.97021

$$$$
_Inhib_32_chloroacetamide


 28 31  0  0  0  0  0  0  0  0999 V2000
   -0.0242   45.6575   80.4990 C   0  0  0  0  0  0  0  0  0  0  0  0
   -1.2888   43.7841   79.5843 N   0  0  0  0  0  0  0  0  0  0  0  0
   -1.2746   45.1110   79.9026 C   0  0  0  0  0  0  0  0  0  0  0  0
   -2.2645   45.8212   79.8514 O   0  0  0  0  0  0  0  0  0  0  0  0
   -0.3660   43.3191   79.5986 H   0  0  0  0  0  0  0  0  0  0  0  0
   -2.4291   42.9257   79.3826 C   0  0  0  0  0  0  0  0  0  0  0  0
   -3.1900   42.8900   78.0645 C   0  0  0  0  0  0  0  0  0  0  0  0
   -4.6252   43.0557   78.1049 N   0  0  0  0  0  0  0  0  0  0  0  0
   -5.4844   42.3836   78.7864 C   0  0  0  0  0  0  0  0  0  0  0  0
   -5.1676   41.4308   79.8611 C   0  0  0  0  0  0  0  0  0  0  0  0
   -6.1069   40.6272   80.3962 N   0  0  0  0  0  0  0  0  0  0  0  0
   -5.5605   40.0082   81.4544 C   0  0  0  0  0  0  0  0  0  0  0  0
   -4.2481   40.4109   81.6111 C   0  0  0  0  0  0  0  0  0  0  0  0
   -3.9889   41.3213   80.5799 C   0  0  0  0  0  0  0  0  0  0  0  0
   -2.7905   42.1699   80.4410 C   0  0  0  0  0  0  0  0  0  0  0  0
   -7.0979   40.5303   80.0803 H   0  0  0  0  0  0  0  0  0  0  0  0
   -3.3841   39.9771   82.7367 C   0  0  0  0  0  0  0  0  0  0  0  0
   -3.5561   38.8114   83.4872 C   0  0  0  0  0  0  0  0  0  0  0  0
   -2.3057   38.7176   84.6062 S   0  0  0  0  0  0  0  0  0  0  0  0
   -1.5904   40.1519   84.1011 C   0  0  0  0  0  0  0  0  0  0  0  0
   -2.2993   40.7196   83.0988 N   0  0  0  0  0  0  0  0  0  0  0  0
   -0.3154   40.6875   84.6283 C   0  0  0  0  0  0  0  0  0  0  0  0
    0.4928   39.9246   85.3911 C   0  0  0  0  0  0  0  0  0  0  0  0
    1.7648   40.4969   85.9447 C   0  0  0  0  0  0  0  0  0  0  0  0
    2.0143   41.8802   85.6121 N   0  0  0  0  0  0  0  0  0  0  0  0
    1.1052   42.6036   84.7943 C   0  0  0  0  0  0  0  0  0  0  0  0
    0.0327   42.0439   84.3441 N   0  0  0  0  0  0  0  0  0  0  0  0
    2.8603   42.3461   85.9710 H   0  0  0  0  0  0  0  0  0  0  0  0
  6  7  1  0
  6 15  2  0
  7  8  1  0
  8  9  2  0
  9 10  1  0
 10 11  1  0
 10 14  2  0
 11 12  1  0
 12 13  2  0
 13 17  1  0
 13 14  1  0
 17 18  2  0
 17 21  1  0
 18 19  1  0
 19 20  1  0
 20 22  1  0
 20 21  2  0
 22 23  2  0
 22 27  1  0
 23 24  1  0
 24 25  1  0
 25 26  1  0
 26 27  2  0
 14 15  1  0
  2  3  1  0
  3  4  2  0
  3  1  1  0
  6  2  1  0
 11 16  1  0
 25 28  1  0
  2  5  1  0
M  ISO 1   1  13
M  END
> <minimizedAffinity>
-4.88463

$$$$
_Inhib_32_chloroacetamide


 28 31  0  0  0  0  0  0  0  0999 V2000
    0.2302   45.3997   80.7157 C   0  0  0  0  0  0  0  0  0  0  0  0
   -0.5027   44.9347   78.4371 N   0  0  0  0  0  0  0  0  0  0  0  0
   -0.8570   45.3021   79.7026 C   0  0  0  0  0  0  0  0  0  0  0  0
   -2.0154   45.4151   80.0661 O   0  0  0  0  0  0  0  0  0  0  0  0
    0.5123   44.9509   78.2430 H   0  0  0  0  0  0  0  0  0  0  0  0
   -1.3391   44.3880   77.3981 C   0  0  0  0  0  0  0  0  0  0  0  0
   -1.6069   42.8941   77.2792 C   0  0  0  0  0  0  0  0  0  0  0  0
   -1.3809   42.2642   75.9981 N   0  0  0  0  0  0  0  0  0  0  0  0
   -1.8699   42.5906   74.8542 C   0  0  0  0  0  0  0  0  0  0  0  0
   -2.6014   43.8320   74.5590 C   0  0  0  0  0  0  0  0  0  0  0  0
   -3.2452   44.0150   73.3901 N   0  0  0  0  0  0  0  0  0  0  0  0
   -3.6620   45.2902   73.3484 C   0  0  0  0  0  0  0  0  0  0  0  0
   -3.2874   45.9473   74.5047 C   0  0  0  0  0  0  0  0  0  0  0  0
   -2.6112   45.0074   75.2914 C   0  0  0  0  0  0  0  0  0  0  0  0
   -1.8545   45.2815   76.5273 C   0  0  0  0  0  0  0  0  0  0  0  0
   -3.3646   43.3113   72.6273 H   0  0  0  0  0  0  0  0  0  0  0  0
   -3.5216   47.3934   74.7408 C   0  0  0  0  0  0  0  0  0  0  0  0
   -4.7427   47.9676   75.1029 C   0  0  0  0  0  0  0  0  0  0  0  0
   -4.5049   49.6178   75.3149 S   0  0  0  0  0  0  0  0  0  0  0  0
   -2.8674   49.5475   74.9439 C   0  0  0  0  0  0  0  0  0  0  0  0
   -2.4937   48.2835   74.6402 N   0  0  0  0  0  0  0  0  0  0  0  0
   -1.9392   50.6982   75.0118 C   0  0  0  0  0  0  0  0  0  0  0  0
   -0.6070   50.5087   75.0920 C   0  0  0  0  0  0  0  0  0  0  0  0
    0.3155   51.6879   75.1947 C   0  0  0  0  0  0  0  0  0  0  0  0
   -0.3335   52.9781   75.2172 N   0  0  0  0  0  0  0  0  0  0  0  0
   -1.7475   53.0791   75.1212 C   0  0  0  0  0  0  0  0  0  0  0  0
   -2.4802   52.0207   75.0256 N   0  0  0  0  0  0  0  0  0  0  0  0
    0.2349   53.8331   75.3030 H   0  0  0  0  0  0  0  0  0  0  0  0
  6  7  1  0
  6 15  2  0
  7  8  1  0
  8  9  2  0
  9 10  1  0
 10 11  1  0
 10 14  2  0
 11 12  1  0
 12 13  2  0
 13 17  1  0
 13 14  1  0
 17 18  2  0
 17 21  1  0
 18 19  1  0
 19 20  1  0
 20 22  1  0
 20 21  2  0
 22 23  2  0
 22 27  1  0
 23 24  1  0
 24 25  1  0
 25 26  1  0
 26 27  2  0
 14 15  1  0
  2  3  1  0
  3  4  2  0
  3  1  1  0
  6  2  1  0
 11 16  1  0
 25 28  1  0
  2  5  1  0
M  ISO 1   1  13
M  END
> <minimizedAffinity>
-4.85154

$$$$
_Inhib_32_chloroacetamide


 28 31  0  0  0  0  0  0  0  0999 V2000
   -0.0211   45.6544   80.5010 C   0  0  0  0  0  0  0  0  0  0  0  0
   -1.1803   43.8000   79.4224 N   0  0  0  0  0  0  0  0  0  0  0  0
   -1.2610   45.0677   79.9209 C   0  0  0  0  0  0  0  0  0  0  0  0
   -2.3122   45.6746   80.0369 O   0  0  0  0  0  0  0  0  0  0  0  0
   -0.2209   43.4331   79.3088 H   0  0  0  0  0  0  0  0  0  0  0  0
   -2.2504   42.8649   79.1813 C   0  0  0  0  0  0  0  0  0  0  0  0
   -3.2565   43.0615   78.0559 C   0  0  0  0  0  0  0  0  0  0  0  0
   -4.6626   42.9966   78.3839 N   0  0  0  0  0  0  0  0  0  0  0  0
   -5.2969   42.0508   78.9817 C   0  0  0  0  0  0  0  0  0  0  0  0
   -4.6785   40.9087   79.6719 C   0  0  0  0  0  0  0  0  0  0  0  0
   -5.4081   39.8636   80.1077 N   0  0  0  0  0  0  0  0  0  0  0  0
   -4.6012   39.0783   80.8382 C   0  0  0  0  0  0  0  0  0  0  0  0
   -3.3290   39.6159   80.8784 C   0  0  0  0  0  0  0  0  0  0  0  0
   -3.3733   40.7915   80.1198 C   0  0  0  0  0  0  0  0  0  0  0  0
   -2.3149   41.8145   80.0268 C   0  0  0  0  0  0  0  0  0  0  0  0
   -6.4287   39.7068   79.9497 H   0  0  0  0  0  0  0  0  0  0  0  0
   -2.2167   39.0367   81.6715 C   0  0  0  0  0  0  0  0  0  0  0  0
   -1.0679   38.4434   81.1424 C   0  0  0  0  0  0  0  0  0  0  0  0
   -0.0738   37.9918   82.4201 S   0  0  0  0  0  0  0  0  0  0  0  0
   -1.1292   38.5641   83.5959 C   0  0  0  0  0  0  0  0  0  0  0  0
   -2.2451   39.0822   83.0340 N   0  0  0  0  0  0  0  0  0  0  0  0
   -0.8469   38.5704   85.0488 C   0  0  0  0  0  0  0  0  0  0  0  0
    0.3222   39.0439   85.5243 C   0  0  0  0  0  0  0  0  0  0  0  0
    0.6035   39.0100   86.9980 C   0  0  0  0  0  0  0  0  0  0  0  0
   -0.4406   38.4320   87.8117 N   0  0  0  0  0  0  0  0  0  0  0  0
   -1.6443   37.9636   87.2197 C   0  0  0  0  0  0  0  0  0  0  0  0
   -1.8230   38.0327   85.9432 N   0  0  0  0  0  0  0  0  0  0  0  0
   -0.3111   38.3596   88.8312 H   0  0  0  0  0  0  0  0  0  0  0  0
  6  7  1  0
  6 15  2  0
  7  8  1  0
  8  9  2  0
  9 10  1  0
 10 11  1  0
 10 14  2  0
 11 12  1  0
 12 13  2  0
 13 17  1  0
 13 14  1  0
 17 18  2  0
 17 21  1  0
 18 19  1  0
 19 20  1  0
 20 22  1  0
 20 21  2  0
 22 23  2  0
 22 27  1  0
 23 24  1  0
 24 25  1  0
 25 26  1  0
 26 27  2  0
 14 15  1  0
  2  3  1  0
  3  4  2  0
  3  1  1  0
  6  2  1  0
 11 16  1  0
 25 28  1  0
  2  5  1  0
M  ISO 1   1  13
M  END
> <minimizedAffinity>
-4.74261

$$$$
_Inhib_32_chloroacetamide


 28 31  0  0  0  0  0  0  0  0999 V2000
    0.1322   45.4992   80.6185 C   0  0  0  0  0  0  0  0  0  0  0  0
   -1.4217   43.7526   81.3113 N   0  0  0  0  0  0  0  0  0  0  0  0
   -0.2456   44.0606   80.6916 C   0  0  0  0  0  0  0  0  0  0  0  0
    0.4251   43.2419   80.0860 O   0  0  0  0  0  0  0  0  0  0  0  0
   -1.8488   44.5236   81.8509 H   0  0  0  0  0  0  0  0  0  0  0  0
   -2.2104   42.5526   81.1858 C   0  0  0  0  0  0  0  0  0  0  0  0
   -3.1894   42.3459   80.0384 C   0  0  0  0  0  0  0  0  0  0  0  0
   -4.5450   41.9643   80.3637 N   0  0  0  0  0  0  0  0  0  0  0  0
   -4.9419   40.9683   81.0740 C   0  0  0  0  0  0  0  0  0  0  0  0
   -4.0819   40.1158   81.9087 C   0  0  0  0  0  0  0  0  0  0  0  0
   -4.5397   38.9804   82.4706 N   0  0  0  0  0  0  0  0  0  0  0  0
   -3.5891   38.5232   83.3007 C   0  0  0  0  0  0  0  0  0  0  0  0
   -2.4968   39.3691   83.2791 C   0  0  0  0  0  0  0  0  0  0  0  0
   -2.8077   40.3921   82.3757 C   0  0  0  0  0  0  0  0  0  0  0  0
   -2.0398   41.6325   82.1586 C   0  0  0  0  0  0  0  0  0  0  0  0
   -5.4806   38.5496   82.3280 H   0  0  0  0  0  0  0  0  0  0  0  0
   -1.3056   39.1953   84.1466 C   0  0  0  0  0  0  0  0  0  0  0  0
    0.0189   39.4066   83.7557 C   0  0  0  0  0  0  0  0  0  0  0  0
    1.0084   39.1429   85.0883 S   0  0  0  0  0  0  0  0  0  0  0  0
   -0.2719   38.7735   86.1120 C   0  0  0  0  0  0  0  0  0  0  0  0
   -1.4511   38.8285   85.4518 N   0  0  0  0  0  0  0  0  0  0  0  0
   -0.1388   38.4975   87.5600 C   0  0  0  0  0  0  0  0  0  0  0  0
    0.9715   38.8584   88.2339 C   0  0  0  0  0  0  0  0  0  0  0  0
    1.1019   38.5390   89.6944 C   0  0  0  0  0  0  0  0  0  0  0  0
   -0.0142   37.8264   90.2715 N   0  0  0  0  0  0  0  0  0  0  0  0
   -1.1472   37.4933   89.4815 C   0  0  0  0  0  0  0  0  0  0  0  0
   -1.1958   37.8083   88.2307 N   0  0  0  0  0  0  0  0  0  0  0  0
    0.0116   37.5581   91.2659 H   0  0  0  0  0  0  0  0  0  0  0  0
  6  7  1  0
  6 15  2  0
  7  8  1  0
  8  9  2  0
  9 10  1  0
 10 11  1  0
 10 14  2  0
 11 12  1  0
 12 13  2  0
 13 17  1  0
 13 14  1  0
 17 18  2  0
 17 21  1  0
 18 19  1  0
 19 20  1  0
 20 22  1  0
 20 21  2  0
 22 23  2  0
 22 27  1  0
 23 24  1  0
 24 25  1  0
 25 26  1  0
 26 27  2  0
 14 15  1  0
  2  3  1  0
  3  4  2  0
  3  1  1  0
  6  2  1  0
 11 16  1  0
 25 28  1  0
  2  5  1  0
M  ISO 1   1  13
M  END
> <minimizedAffinity>
-4.73937

$$$$
_Inhib_32_chloroacetamide


 28 31  0  0  0  0  0  0  0  0999 V2000
    0.2403   45.3894   80.7270 C   0  0  0  0  0  0  0  0  0  0  0  0
    1.7296   46.4672   79.1251 N   0  0  0  0  0  0  0  0  0  0  0  0
    0.4653   46.3705   79.6294 C   0  0  0  0  0  0  0  0  0  0  0  0
   -0.4956   46.9379   79.1377 O   0  0  0  0  0  0  0  0  0  0  0  0
    2.4619   45.9970   79.6825 H   0  0  0  0  0  0  0  0  0  0  0  0
    2.1458   47.0031   77.8533 C   0  0  0  0  0  0  0  0  0  0  0  0
    3.5750   46.8650   77.3475 C   0  0  0  0  0  0  0  0  0  0  0  0
    4.2567   48.0604   76.9057 N   0  0  0  0  0  0  0  0  0  0  0  0
    3.8730   48.9149   76.0243 C   0  0  0  0  0  0  0  0  0  0  0  0
    2.5315   48.9825   75.4251 C   0  0  0  0  0  0  0  0  0  0  0  0
    2.2635   49.7815   74.3744 N   0  0  0  0  0  0  0  0  0  0  0  0
    0.9372   49.7561   74.1696 C   0  0  0  0  0  0  0  0  0  0  0  0
    0.3321   48.9292   75.0966 C   0  0  0  0  0  0  0  0  0  0  0  0
    1.3584   48.4217   75.9019 C   0  0  0  0  0  0  0  0  0  0  0  0
    1.1939   47.6503   77.1482 C   0  0  0  0  0  0  0  0  0  0  0  0
    2.9504   50.3570   73.8376 H   0  0  0  0  0  0  0  0  0  0  0  0
   -1.1367   48.7454   75.1989 C   0  0  0  0  0  0  0  0  0  0  0  0
   -2.0930   49.7478   75.0183 C   0  0  0  0  0  0  0  0  0  0  0  0
   -3.6162   49.0547   75.1729 S   0  0  0  0  0  0  0  0  0  0  0  0
   -3.0133   47.5127   75.4602 C   0  0  0  0  0  0  0  0  0  0  0  0
   -1.6607   47.5139   75.4596 N   0  0  0  0  0  0  0  0  0  0  0  0
   -3.8462   46.2996   75.6188 C   0  0  0  0  0  0  0  0  0  0  0  0
   -4.5956   46.1145   76.7238 C   0  0  0  0  0  0  0  0  0  0  0  0
   -5.4067   44.8617   76.8812 C   0  0  0  0  0  0  0  0  0  0  0  0
   -5.2951   43.9148   75.7962 N   0  0  0  0  0  0  0  0  0  0  0  0
   -4.4827   44.2008   74.6662 C   0  0  0  0  0  0  0  0  0  0  0  0
   -3.8183   45.3051   74.5930 N   0  0  0  0  0  0  0  0  0  0  0  0
   -5.8105   43.0239   75.8422 H   0  0  0  0  0  0  0  0  0  0  0  0
  6  7  1  0
  6 15  2  0
  7  8  1  0
  8  9  2  0
  9 10  1  0
 10 11  1  0
 10 14  2  0
 11 12  1  0
 12 13  2  0
 13 17  1  0
 13 14  1  0
 17 18  2  0
 17 21  1  0
 18 19  1  0
 19 20  1  0
 20 22  1  0
 20 21  2  0
 22 23  2  0
 22 27  1  0
 23 24  1  0
 24 25  1  0
 25 26  1  0
 26 27  2  0
 14 15  1  0
  2  3  1  0
  3  4  2  0
  3  1  1  0
  6  2  1  0
 11 16  1  0
 25 28  1  0
  2  5  1  0
M  ISO 1   1  13
M  END
> <minimizedAffinity>
-4.70294

$$$$
