Inhib_32_chloroacetamide
     RDKit          3D

  0  0  0  0  0  0  0  0  0  0999 V3000
M  V30 BEGIN CTAB
M  V30 COUNTS 38 41 0 0 0
M  V30 BEGIN ATOM
M  V30 1 C 0.894284 42.753049 82.243462 0
M  V30 2 C 1.765983 42.537158 81.105431 0 RAD=2 VAL=3
M  V30 3 N 1.554858 41.544646 80.185632 0
M  V30 4 C 1.468786 40.307166 80.564311 0
M  V30 5 C 1.485610 39.800476 81.912753 0
M  V30 6 N 1.795795 38.497678 82.231755 0
M  V30 7 C 1.698802 38.310482 83.583135 0
M  V30 8 C 1.318249 39.505496 84.156792 0
M  V30 9 C 1.119745 39.727614 85.591614 0
M  V30 10 C 1.367377 40.885375 86.291497 0
M  V30 11 S 0.995902 40.657405 87.943418 0
M  V30 12 C 0.549379 39.002209 87.630579 0
M  V30 13 C 0.096070 38.140512 88.695702 0
M  V30 14 C -0.238369 36.864589 88.395598 0
M  V30 15 C -0.692407 35.992679 89.445271 0 RAD=2 VAL=3
M  V30 16 N -0.751970 36.533383 90.692783 0
M  V30 17 C -0.390497 37.839793 90.891505 0
M  V30 18 N 0.024404 38.667977 89.983281 0
M  V30 19 N 0.677730 38.662578 86.354401 0
M  V30 20 C 1.154453 40.441251 83.096381 0
M  V30 21 C 0.657652 41.780960 83.148545 0
M  V30 22 N 0.316982 43.993204 82.453765 0
M  V30 23 C 0.465514 45.162337 81.726520 0
M  V30 24 O 1.213482 45.317173 80.763096 0
M  V30 25 C -0.437000 46.306000 82.166000 0 MASS=13 RAD=2 VAL=3
M  V30 26 H 2.466988 43.313982 80.817276 0
M  V30 27 H 1.379696 39.554947 79.761284 0
M  V30 28 H 2.066404 37.784153 81.567327 0
M  V30 29 H 1.912243 37.348992 84.031535 0
M  V30 30 H 1.751858 41.827525 85.931098 0
M  V30 31 H -0.176941 36.471083 87.386507 0
M  V30 32 H -0.979291 34.960522 89.297700 0
M  V30 33 H -1.064715 35.955902 91.462337 0
M  V30 34 H -0.481332 38.161853 91.941972 0
M  V30 35 H 0.019836 42.007710 83.998476 0
M  V30 36 H -0.318458 44.052082 83.237819 0
M  V30 37 H -0.358832 47.223411 81.599303 0
M  V30 38 H -1.124182 46.183657 82.986633 0
M  V30 END ATOM
M  V30 BEGIN BOND
M  V30 1 1 1 2
M  V30 2 2 1 21
M  V30 3 1 2 3
M  V30 4 2 3 4
M  V30 5 1 4 5
M  V30 6 1 5 6
M  V30 7 2 5 20
M  V30 8 1 6 7
M  V30 9 2 7 8
M  V30 10 1 8 9
M  V30 11 1 8 20
M  V30 12 2 9 10
M  V30 13 1 9 19
M  V30 14 1 10 11
M  V30 15 1 11 12
M  V30 16 1 12 13
M  V30 17 2 12 19
M  V30 18 2 13 14
M  V30 19 1 13 18
M  V30 20 1 14 15
M  V30 21 1 15 16
M  V30 22 1 16 17
M  V30 23 2 17 18
M  V30 24 1 20 21
M  V30 25 1 22 23
M  V30 26 2 23 24
M  V30 27 1 23 25
M  V30 28 1 1 22
M  V30 29 1 2 26
M  V30 30 1 4 27
M  V30 31 1 6 28
M  V30 32 1 7 29
M  V30 33 1 10 30
M  V30 34 1 14 31
M  V30 35 1 15 32
M  V30 36 1 16 33
M  V30 37 1 17 34
M  V30 38 1 21 35
M  V30 39 1 22 36
M  V30 40 1 25 37
M  V30 41 1 25 38
M  V30 END BOND
M  V30 END CTAB
M  END
>  <Type>  (1) 
pre-reaction

>  <Warhead>  (1) 
chloroacetamide

$$$$
