Inhib_32_chloroacetamide
     RDKit          3D

  0  0  0  0  0  0  0  0  0  0999 V3000
M  V30 BEGIN CTAB
M  V30 COUNTS 38 41 0 0 0
M  V30 BEGIN ATOM
M  V30 1 C 3.322394 -0.819892 0.187582 0
M  V30 2 C 4.054041 -0.944386 1.432885 0 RAD=2 VAL=3
M  V30 3 N 3.795764 -1.927034 2.351241 0
M  V30 4 C 2.604684 -2.066126 2.845352 0
M  V30 5 C 1.415769 -1.337245 2.484069 0
M  V30 6 N 0.308459 -1.238001 3.296026 0
M  V30 7 C -0.666793 -0.510457 2.671331 0
M  V30 8 C -0.193148 -0.129754 1.433313 0
M  V30 9 C -0.931405 0.678649 0.459191 0
M  V30 10 C -0.406567 1.592253 -0.424801 0
M  V30 11 S -1.660508 2.295304 -1.347925 0
M  V30 12 C -2.845209 1.351704 -0.485934 0
M  V30 13 C -4.251282 1.466704 -0.789630 0
M  V30 14 C -5.126835 0.709605 -0.089560 0
M  V30 15 C -6.531628 0.811809 -0.379908 0 RAD=2 VAL=3
M  V30 16 N -6.880662 1.685888 -1.362943 0
M  V30 17 C -5.914532 2.407132 -2.013527 0
M  V30 18 N -4.637370 2.353605 -1.792405 0
M  V30 19 N -2.308773 0.561224 0.434844 0
M  V30 20 C 1.114172 -0.678172 1.302588 0
M  V30 21 C 1.981444 -0.673241 0.165853 0
M  V30 22 N 3.999281 -0.800447 -1.019453 0
M  V30 23 C 5.362257 -0.850880 -1.259394 0
M  V30 24 O 6.241451 -0.863555 -0.400047 0
M  V30 25 C 5.748160 -0.952117 -2.727886 0 RAD=2 VAL=3
M  V30 26 H 4.991676 -0.411548 1.554624 0
M  V30 27 H 2.489827 -2.824906 3.638878 0
M  V30 28 H 0.228983 -1.634931 4.223355 0
M  V30 29 H -1.615266 -0.315244 3.154419 0
M  V30 30 H 0.622153 1.888208 -0.564462 0
M  V30 31 H -4.807804 0.023434 0.687791 0
M  V30 32 H -7.300903 0.246927 0.128571 0
M  V30 33 H -7.858531 1.791267 -1.599952 0
M  V30 34 H -6.320041 3.079472 -2.787463 0
M  V30 35 H 1.488216 -0.553965 -0.794931 0
M  V30 36 H 3.418101 -0.763111 -1.845787 0
M  V30 37 H 6.805826 -1.017514 -2.942278 0
M  V30 38 H 4.994185 -0.975834 -3.497031 0
M  V30 END ATOM
M  V30 BEGIN BOND
M  V30 1 1 1 2
M  V30 2 2 1 21
M  V30 3 1 2 3
M  V30 4 2 3 4
M  V30 5 1 4 5
M  V30 6 1 5 6
M  V30 7 2 5 20
M  V30 8 1 6 7
M  V30 9 2 7 8
M  V30 10 1 8 9
M  V30 11 1 8 20
M  V30 12 2 9 10
M  V30 13 1 9 19
M  V30 14 1 10 11
M  V30 15 1 11 12
M  V30 16 1 12 13
M  V30 17 2 12 19
M  V30 18 2 13 14
M  V30 19 1 13 18
M  V30 20 1 14 15
M  V30 21 1 15 16
M  V30 22 1 16 17
M  V30 23 2 17 18
M  V30 24 1 20 21
M  V30 25 1 22 23
M  V30 26 2 23 24
M  V30 27 1 23 25
M  V30 28 1 1 22
M  V30 29 1 2 26
M  V30 30 1 4 27
M  V30 31 1 6 28
M  V30 32 1 7 29
M  V30 33 1 10 30
M  V30 34 1 14 31
M  V30 35 1 15 32
M  V30 36 1 16 33
M  V30 37 1 17 34
M  V30 38 1 21 35
M  V30 39 1 22 36
M  V30 40 1 25 37
M  V30 41 1 25 38
M  V30 END BOND
M  V30 END CTAB
M  END
>  <Type>  (1) 
pre-reaction

>  <Warhead>  (1) 
chloroacetamide

$$$$
