4CXA_Inhib_42_docked
     RDKit          3D

 35 37  0  0  0  0  0  0  0  0999 V2000
   10.1270  -16.6330   11.7800 C   0  0  0  0  0  0  0  0  0  0  0  0
    9.0520  -17.6170   11.4840 C   0  0  0  0  0  0  0  0  0  0  0  0
    7.9900  -17.4120   10.6200 C   0  0  0  0  0  0  0  0  0  0  0  0
    7.2190  -18.5420   10.6090 N   0  0  0  0  0  0  0  0  0  0  0  0
    7.7540  -19.4780   11.4460 C   0  0  0  0  0  0  0  0  0  0  0  0
    7.2170  -20.6970   11.6410 N   0  0  0  0  0  0  0  0  0  0  0  0
    7.9190  -21.4500   12.5110 C   0  0  0  0  0  0  0  0  0  0  0  0
    9.0780  -21.0590   13.1640 C   0  0  0  0  0  0  0  0  0  0  0  0
    9.6010  -19.7770   12.9300 C   0  0  0  0  0  0  0  0  0  0  0  0
   10.8160  -19.3220   13.5980 C   0  0  0  0  0  0  0  0  0  0  0  0
   12.0730  -19.6720   13.1120 C   0  0  0  0  0  0  0  0  0  0  0  0
   13.1850  -19.2010   13.7790 C   0  0  0  0  0  0  0  0  0  0  0  0
   13.1300  -18.4280   14.8850 N   0  0  0  0  0  0  0  0  0  0  0  0
   11.9190  -18.0960   15.3830 C   0  0  0  0  0  0  0  0  0  0  0  0
   11.8320  -17.2760   16.5290 N   0  0  0  0  0  0  0  0  0  0  0  0
   13.1410  -16.9320   17.0830 C   0  0  0  0  0  0  0  0  0  0  0  0
   10.9440  -16.1280   16.3380 C   0  0  0  0  0  0  0  0  0  0  0  0
   10.7510  -18.5260   14.7490 C   0  0  0  0  0  0  0  0  0  0  0  0
    8.9040  -18.9430   12.0230 C   0  0  0  0  0  0  0  0  0  0  0  0
   10.2398  -16.5298   12.8693 H   0  0  0  0  0  0  0  0  0  0  0  0
   11.0746  -16.9832   11.3448 H   0  0  0  0  0  0  0  0  0  0  0  0
    9.8618  -15.6582   11.3448 H   0  0  0  0  0  0  0  0  0  0  0  0
    7.7987  -16.4965   10.0410 H   0  0  0  0  0  0  0  0  0  0  0  0
    6.3770  -18.6910   10.0720 H   0  0  0  0  0  0  0  0  0  0  0  0
    7.5401  -22.4611   12.7209 H   0  0  0  0  0  0  0  0  0  0  0  0
    9.5829  -21.7464   13.8586 H   0  0  0  0  0  0  0  0  0  0  0  0
   12.1767  -20.3072   12.2199 H   0  0  0  0  0  0  0  0  0  0  0  0
   14.1763  -19.4714   13.3862 H   0  0  0  0  0  0  0  0  0  0  0  0
   13.0892  -16.9456   18.1817 H   0  0  0  0  0  0  0  0  0  0  0  0
   13.8875  -17.6645   16.7420 H   0  0  0  0  0  0  0  0  0  0  0  0
   13.4309  -15.9272   16.7420 H   0  0  0  0  0  0  0  0  0  0  0  0
   10.6388  -15.7334   17.3184 H   0  0  0  0  0  0  0  0  0  0  0  0
   11.4734  -15.3444   15.7760 H   0  0  0  0  0  0  0  0  0  0  0  0
   10.0526  -16.4435   15.7760 H   0  0  0  0  0  0  0  0  0  0  0  0
    9.7713  -18.2370   15.1572 H   0  0  0  0  0  0  0  0  0  0  0  0
  1  2  1  0
  2  3  2  0
  3  4  1  0
  4  5  1  0
  5  6  2  0
  6  7  1  0
  7  8  2  0
  8  9  1  0
  9 10  1  0
 10 11  2  0
 11 12  1  0
 12 13  2  0
 13 14  1  0
 14 15  1  0
 15 16  1  0
 15 17  1  0
 14 18  2  0
  9 19  2  0
 19  2  1  0
 19  5  1  0
 18 10  1  0
  1 20  1  0
  1 21  1  0
  1 22  1  0
  3 23  1  0
  4 24  1  0
  7 25  1  0
  8 26  1  0
 11 27  1  0
 12 28  1  0
 16 29  1  0
 16 30  1  0
 16 31  1  0
 17 32  1  0
 17 33  1  0
 17 34  1  0
 18 35  1  0
M  END
>  <meeko>  (1) 
{"is_sidechain": [false], "free_energy": -8.001, "intermolecular_energy": -8.936, "internal_energy": -0.56}

$$$$
4CXA_Inhib_42_docked
     RDKit          3D

 35 37  0  0  0  0  0  0  0  0999 V2000
   10.3340  -16.6040   14.5840 C   0  0  0  0  0  0  0  0  0  0  0  0
   11.5780  -17.2840   15.0320 C   0  0  0  0  0  0  0  0  0  0  0  0
   12.5580  -16.7200   15.8330 C   0  0  0  0  0  0  0  0  0  0  0  0
   13.5410  -17.6510   16.0310 N   0  0  0  0  0  0  0  0  0  0  0  0
   13.2250  -18.8070   15.3770 C   0  0  0  0  0  0  0  0  0  0  0  0
   14.0010  -19.9070   15.3920 N   0  0  0  0  0  0  0  0  0  0  0  0
   13.4850  -20.9260   14.6760 C   0  0  0  0  0  0  0  0  0  0  0  0
   12.2860  -20.8980   13.9810 C   0  0  0  0  0  0  0  0  0  0  0  0
   11.5100  -19.7280   13.9940 C   0  0  0  0  0  0  0  0  0  0  0  0
   10.2430  -19.6520   13.2730 C   0  0  0  0  0  0  0  0  0  0  0  0
    9.0710  -20.1550   13.8320 C   0  0  0  0  0  0  0  0  0  0  0  0
    7.9020  -20.0430   13.1080 C   0  0  0  0  0  0  0  0  0  0  0  0
    7.8250  -19.4830   11.8810 N   0  0  0  0  0  0  0  0  0  0  0  0
    8.9560  -19.0080   11.3140 C   0  0  0  0  0  0  0  0  0  0  0  0
    8.9020  -18.4040   10.0400 N   0  0  0  0  0  0  0  0  0  0  0  0
    7.6040  -18.5700    9.3860 C   0  0  0  0  0  0  0  0  0  0  0  0
    9.3970  -17.0260   10.0450 C   0  0  0  0  0  0  0  0  0  0  0  0
   10.1720  -19.0760   11.9980 C   0  0  0  0  0  0  0  0  0  0  0  0
   12.0040  -18.6250   14.7310 C   0  0  0  0  0  0  0  0  0  0  0  0
    9.7530  -16.2864   15.4624 H   0  0  0  0  0  0  0  0  0  0  0  0
   10.5951  -15.7232   13.9791 H   0  0  0  0  0  0  0  0  0  0  0  0
    9.7335  -17.2993   13.9791 H   0  0  0  0  0  0  0  0  0  0  0  0
   12.5475  -15.6982   16.2402 H   0  0  0  0  0  0  0  0  0  0  0  0
   14.3830  -17.5300   16.5740 H   0  0  0  0  0  0  0  0  0  0  0  0
   14.0652  -21.8598   14.6402 H   0  0  0  0  0  0  0  0  0  0  0  0
   11.9458  -21.7839   13.4247 H   0  0  0  0  0  0  0  0  0  0  0  0
    9.0771  -20.6291   14.8246 H   0  0  0  0  0  0  0  0  0  0  0  0
    6.9767  -20.4333   13.5569 H   0  0  0  0  0  0  0  0  0  0  0  0
    6.8188  -18.6704   10.1498 H   0  0  0  0  0  0  0  0  0  0  0  0
    7.3947  -17.6913    8.7582 H   0  0  0  0  0  0  0  0  0  0  0  0
    7.6225  -19.4731    8.7582 H   0  0  0  0  0  0  0  0  0  0  0  0
    9.5198  -16.6843   11.0833 H   0  0  0  0  0  0  0  0  0  0  0  0
   10.3668  -16.9829    9.5277 H   0  0  0  0  0  0  0  0  0  0  0  0
    8.6763  -16.3756    9.5277 H   0  0  0  0  0  0  0  0  0  0  0  0
   11.0828  -18.6733   11.5309 H   0  0  0  0  0  0  0  0  0  0  0  0
  1  2  1  0
  2  3  2  0
  3  4  1  0
  4  5  1  0
  5  6  2  0
  6  7  1  0
  7  8  2  0
  8  9  1  0
  9 10  1  0
 10 11  2  0
 11 12  1  0
 12 13  2  0
 13 14  1  0
 14 15  1  0
 15 16  1  0
 15 17  1  0
 14 18  2  0
  9 19  2  0
 19  2  1  0
 19  5  1  0
 18 10  1  0
  1 20  1  0
  1 21  1  0
  1 22  1  0
  3 23  1  0
  4 24  1  0
  7 25  1  0
  8 26  1  0
 11 27  1  0
 12 28  1  0
 16 29  1  0
 16 30  1  0
 16 31  1  0
 17 32  1  0
 17 33  1  0
 17 34  1  0
 18 35  1  0
M  END
>  <meeko>  (2) 
{"is_sidechain": [false], "free_energy": -7.804, "intermolecular_energy": -8.716, "internal_energy": -0.561}

$$$$
4CXA_Inhib_42_docked
     RDKit          3D

 35 37  0  0  0  0  0  0  0  0999 V2000
   12.1320  -16.6810   16.3570 C   0  0  0  0  0  0  0  0  0  0  0  0
   13.0940  -17.8040   16.5200 C   0  0  0  0  0  0  0  0  0  0  0  0
   14.0510  -17.9030   17.5160 C   0  0  0  0  0  0  0  0  0  0  0  0
   14.7380  -19.0720   17.3380 N   0  0  0  0  0  0  0  0  0  0  0  0
   14.2510  -19.7370   16.2490 C   0  0  0  0  0  0  0  0  0  0  0  0
   14.7260  -20.9230   15.8270 N   0  0  0  0  0  0  0  0  0  0  0  0
   14.0900  -21.3870   14.7320 C   0  0  0  0  0  0  0  0  0  0  0  0
   13.0500  -20.7490   14.0730 C   0  0  0  0  0  0  0  0  0  0  0  0
   12.5880  -19.5120   14.5500 C   0  0  0  0  0  0  0  0  0  0  0  0
   11.4990  -18.8040   13.8860 C   0  0  0  0  0  0  0  0  0  0  0  0
   11.7280  -17.6060   13.2150 C   0  0  0  0  0  0  0  0  0  0  0  0
   10.6610  -16.9890   12.5950 C   0  0  0  0  0  0  0  0  0  0  0  0
    9.3980  -17.4710   12.6110 N   0  0  0  0  0  0  0  0  0  0  0  0
    9.1530  -18.6220   13.2750 C   0  0  0  0  0  0  0  0  0  0  0  0
    7.8470  -19.1570   13.2940 N   0  0  0  0  0  0  0  0  0  0  0  0
    6.8120  -18.1350   13.1320 C   0  0  0  0  0  0  0  0  0  0  0  0
    7.6940  -20.3080   12.4040 C   0  0  0  0  0  0  0  0  0  0  0  0
   10.1910  -19.3070   13.9120 C   0  0  0  0  0  0  0  0  0  0  0  0
   13.2200  -18.9780   15.6990 C   0  0  0  0  0  0  0  0  0  0  0  0
   11.8210  -16.3179   17.3477 H   0  0  0  0  0  0  0  0  0  0  0  0
   12.6140  -15.8631   15.8014 H   0  0  0  0  0  0  0  0  0  0  0  0
   11.2498  -17.0317   15.8014 H   0  0  0  0  0  0  0  0  0  0  0  0
   14.2283  -17.1670   18.3141 H   0  0  0  0  0  0  0  0  0  0  0  0
   15.4950  -19.4190   17.9090 H   0  0  0  0  0  0  0  0  0  0  0  0
   14.4246  -22.3536   14.3273 H   0  0  0  0  0  0  0  0  0  0  0  0
   12.5912  -21.2078   13.1847 H   0  0  0  0  0  0  0  0  0  0  0  0
   12.7340  -17.1626   13.1800 H   0  0  0  0  0  0  0  0  0  0  0  0
   10.8491  -16.0490   12.0556 H   0  0  0  0  0  0  0  0  0  0  0  0
    6.4710  -17.7983   14.1221 H   0  0  0  0  0  0  0  0  0  0  0  0
    7.2246  -17.2802   12.5761 H   0  0  0  0  0  0  0  0  0  0  0  0
    5.9625  -18.5584   12.5761 H   0  0  0  0  0  0  0  0  0  0  0  0
    7.5725  -21.2219   13.0041 H   0  0  0  0  0  0  0  0  0  0  0  0
    6.8069  -20.1654   11.7694 H   0  0  0  0  0  0  0  0  0  0  0  0
    8.5875  -20.4021   11.7694 H   0  0  0  0  0  0  0  0  0  0  0  0
    9.9797  -20.2494   14.4386 H   0  0  0  0  0  0  0  0  0  0  0  0
  1  2  1  0
  2  3  2  0
  3  4  1  0
  4  5  1  0
  5  6  2  0
  6  7  1  0
  7  8  2  0
  8  9  1  0
  9 10  1  0
 10 11  2  0
 11 12  1  0
 12 13  2  0
 13 14  1  0
 14 15  1  0
 15 16  1  0
 15 17  1  0
 14 18  2  0
  9 19  2  0
 19  2  1  0
 19  5  1  0
 18 10  1  0
  1 20  1  0
  1 21  1  0
  1 22  1  0
  3 23  1  0
  4 24  1  0
  7 25  1  0
  8 26  1  0
 11 27  1  0
 12 28  1  0
 16 29  1  0
 16 30  1  0
 16 31  1  0
 17 32  1  0
 17 33  1  0
 17 34  1  0
 18 35  1  0
M  END
>  <meeko>  (3) 
{"is_sidechain": [false], "free_energy": -7.738, "intermolecular_energy": -8.891, "internal_energy": -0.312}

$$$$
4CXA_Inhib_42_docked
     RDKit          3D

 35 37  0  0  0  0  0  0  0  0999 V2000
   12.4020  -16.3950   16.7400 C   0  0  0  0  0  0  0  0  0  0  0  0
   13.1210  -17.6630   16.4450 C   0  0  0  0  0  0  0  0  0  0  0  0
   14.2730  -18.1000   17.0780 C   0  0  0  0  0  0  0  0  0  0  0  0
   14.6310  -19.3040   16.5380 N   0  0  0  0  0  0  0  0  0  0  0  0
   13.7390  -19.6630   15.5680 C   0  0  0  0  0  0  0  0  0  0  0  0
   13.8280  -20.8040   14.8600 N   0  0  0  0  0  0  0  0  0  0  0  0
   12.8350  -20.9430   13.9580 C   0  0  0  0  0  0  0  0  0  0  0  0
   11.8080  -20.0380   13.7430 C   0  0  0  0  0  0  0  0  0  0  0  0
   11.7570  -18.8600   14.5050 C   0  0  0  0  0  0  0  0  0  0  0  0
   10.6960  -17.8770   14.3100 C   0  0  0  0  0  0  0  0  0  0  0  0
    9.5940  -17.8360   15.1590 C   0  0  0  0  0  0  0  0  0  0  0  0
    8.6300  -16.8760   14.9320 C   0  0  0  0  0  0  0  0  0  0  0  0
    8.6830  -15.9770   13.9240 N   0  0  0  0  0  0  0  0  0  0  0  0
    9.7350  -16.0150   13.0780 C   0  0  0  0  0  0  0  0  0  0  0  0
    9.8250  -15.0770   12.0270 N   0  0  0  0  0  0  0  0  0  0  0  0
   10.0590  -15.7020   10.7250 C   0  0  0  0  0  0  0  0  0  0  0  0
    8.7270  -14.1100   12.0360 C   0  0  0  0  0  0  0  0  0  0  0  0
   10.7560  -16.9520   13.2590 C   0  0  0  0  0  0  0  0  0  0  0  0
   12.7750  -18.6620   15.4690 C   0  0  0  0  0  0  0  0  0  0  0  0
   12.3262  -16.2613   17.8292 H   0  0  0  0  0  0  0  0  0  0  0  0
   12.9553  -15.5499   16.3045 H   0  0  0  0  0  0  0  0  0  0  0  0
   11.3927  -16.4359   16.3045 H   0  0  0  0  0  0  0  0  0  0  0  0
   14.8085  -17.5689   17.8787 H   0  0  0  0  0  0  0  0  0  0  0  0
   15.4280  -19.8670   16.7970 H   0  0  0  0  0  0  0  0  0  0  0  0
   12.8409  -21.8529   13.3399 H   0  0  0  0  0  0  0  0  0  0  0  0
   11.0397  -20.2407   12.9823 H   0  0  0  0  0  0  0  0  0  0  0  0
    9.4944  -18.5505   15.9894 H   0  0  0  0  0  0  0  0  0  0  0  0
    7.7662  -16.8398   15.6121 H   0  0  0  0  0  0  0  0  0  0  0  0
   10.4412  -16.7230   10.8718 H   0  0  0  0  0  0  0  0  0  0  0  0
    9.1147  -15.7414   10.1622 H   0  0  0  0  0  0  0  0  0  0  0  0
   10.7970  -15.1116   10.1622 H   0  0  0  0  0  0  0  0  0  0  0  0
    8.4566  -13.8719   13.0753 H   0  0  0  0  0  0  0  0  0  0  0  0
    9.0430  -13.1915   11.5197 H   0  0  0  0  0  0  0  0  0  0  0  0
    7.8558  -14.5396   11.5197 H   0  0  0  0  0  0  0  0  0  0  0  0
   11.6139  -16.9635   12.5707 H   0  0  0  0  0  0  0  0  0  0  0  0
  1  2  1  0
  2  3  2  0
  3  4  1  0
  4  5  1  0
  5  6  2  0
  6  7  1  0
  7  8  2  0
  8  9  1  0
  9 10  1  0
 10 11  2  0
 11 12  1  0
 12 13  2  0
 13 14  1  0
 14 15  1  0
 15 16  1  0
 15 17  1  0
 14 18  2  0
  9 19  2  0
 19  2  1  0
 19  5  1  0
 18 10  1  0
  1 20  1  0
  1 21  1  0
  1 22  1  0
  3 23  1  0
  4 24  1  0
  7 25  1  0
  8 26  1  0
 11 27  1  0
 12 28  1  0
 16 29  1  0
 16 30  1  0
 16 31  1  0
 17 32  1  0
 17 33  1  0
 17 34  1  0
 18 35  1  0
M  END
>  <meeko>  (4) 
{"is_sidechain": [false], "free_energy": -7.695, "intermolecular_energy": -8.623, "internal_energy": -0.532}

$$$$
4CXA_Inhib_42_docked
     RDKit          3D

 35 37  0  0  0  0  0  0  0  0999 V2000
   12.7300  -20.7260   13.5630 C   0  0  0  0  0  0  0  0  0  0  0  0
   13.3580  -20.1560   14.7850 C   0  0  0  0  0  0  0  0  0  0  0  0
   14.3890  -20.7380   15.5050 C   0  0  0  0  0  0  0  0  0  0  0  0
   14.6970  -19.9180   16.5550 N   0  0  0  0  0  0  0  0  0  0  0  0
   13.8910  -18.8150   16.5370 C   0  0  0  0  0  0  0  0  0  0  0  0
   13.9630  -17.8250   17.4460 N   0  0  0  0  0  0  0  0  0  0  0  0
   13.0690  -16.8410   17.2250 C   0  0  0  0  0  0  0  0  0  0  0  0
   12.1510  -16.8030   16.1870 C   0  0  0  0  0  0  0  0  0  0  0  0
   12.1110  -17.8600   15.2640 C   0  0  0  0  0  0  0  0  0  0  0  0
   11.1590  -17.8640   14.1580 C   0  0  0  0  0  0  0  0  0  0  0  0
   11.2370  -16.9140   13.1430 C   0  0  0  0  0  0  0  0  0  0  0  0
   10.3160  -16.9760   12.1180 C   0  0  0  0  0  0  0  0  0  0  0  0
    9.3320  -17.8990   12.0430 N   0  0  0  0  0  0  0  0  0  0  0  0
    9.2280  -18.8160   13.0300 C   0  0  0  0  0  0  0  0  0  0  0  0
    8.2190  -19.8010   12.9690 N   0  0  0  0  0  0  0  0  0  0  0  0
    7.5580  -19.8580   11.6650 C   0  0  0  0  0  0  0  0  0  0  0  0
    8.6660  -21.1010   13.4690 C   0  0  0  0  0  0  0  0  0  0  0  0
   10.1370  -18.8190   14.0910 C   0  0  0  0  0  0  0  0  0  0  0  0
   13.0300  -18.9210   15.4470 C   0  0  0  0  0  0  0  0  0  0  0  0
   11.9443  -21.4391   13.8531 H   0  0  0  0  0  0  0  0  0  0  0  0
   12.2870  -19.9151   12.9661 H   0  0  0  0  0  0  0  0  0  0  0  0
   13.4943  -21.2453   12.9661 H   0  0  0  0  0  0  0  0  0  0  0  0
   14.8765  -21.6961   15.2717 H   0  0  0  0  0  0  0  0  0  0  0  0
   15.4080  -20.0760   17.2540 H   0  0  0  0  0  0  0  0  0  0  0  0
   13.0677  -15.9955   17.9287 H   0  0  0  0  0  0  0  0  0  0  0  0
   11.4604  -15.9526   16.0875 H   0  0  0  0  0  0  0  0  0  0  0  0
   12.0129  -16.1344   13.1581 H   0  0  0  0  0  0  0  0  0  0  0  0
   10.3868  -16.2293   11.3134 H   0  0  0  0  0  0  0  0  0  0  0  0
    6.4714  -19.9517   11.8085 H   0  0  0  0  0  0  0  0  0  0  0  0
    7.7756  -18.9378   11.1031 H   0  0  0  0  0  0  0  0  0  0  0  0
    7.9300  -20.7274   11.1031 H   0  0  0  0  0  0  0  0  0  0  0  0
    8.6628  -21.0916   14.5690 H   0  0  0  0  0  0  0  0  0  0  0  0
    7.9863  -21.8865   13.1070 H   0  0  0  0  0  0  0  0  0  0  0  0
    9.6850  -21.3024   13.1070 H   0  0  0  0  0  0  0  0  0  0  0  0
   10.0490  -19.5789   14.8814 H   0  0  0  0  0  0  0  0  0  0  0  0
  1  2  1  0
  2  3  2  0
  3  4  1  0
  4  5  1  0
  5  6  2  0
  6  7  1  0
  7  8  2  0
  8  9  1  0
  9 10  1  0
 10 11  2  0
 11 12  1  0
 12 13  2  0
 13 14  1  0
 14 15  1  0
 15 16  1  0
 15 17  1  0
 14 18  2  0
  9 19  2  0
 19  2  1  0
 19  5  1  0
 18 10  1  0
  1 20  1  0
  1 21  1  0
  1 22  1  0
  3 23  1  0
  4 24  1  0
  7 25  1  0
  8 26  1  0
 11 27  1  0
 12 28  1  0
 16 29  1  0
 16 30  1  0
 16 31  1  0
 17 32  1  0
 17 33  1  0
 17 34  1  0
 18 35  1  0
M  END
>  <meeko>  (5) 
{"is_sidechain": [false], "free_energy": -7.63, "intermolecular_energy": -8.779, "internal_energy": -0.304}

$$$$
4CXA_Inhib_42_docked
     RDKit          3D

 35 37  0  0  0  0  0  0  0  0999 V2000
   11.2840  -20.6730   13.2630 C   0  0  0  0  0  0  0  0  0  0  0  0
   12.3070  -20.2310   14.2470 C   0  0  0  0  0  0  0  0  0  0  0  0
   13.4330  -20.9500   14.6140 C   0  0  0  0  0  0  0  0  0  0  0  0
   14.1300  -20.2190   15.5360 N   0  0  0  0  0  0  0  0  0  0  0  0
   13.4850  -19.0400   15.7790 C   0  0  0  0  0  0  0  0  0  0  0  0
   13.9350  -18.1090   16.6400 N   0  0  0  0  0  0  0  0  0  0  0  0
   13.1320  -17.0280   16.7150 C   0  0  0  0  0  0  0  0  0  0  0  0
   11.9560  -16.8460   16.0030 C   0  0  0  0  0  0  0  0  0  0  0  0
   11.5260  -17.8460   15.1170 C   0  0  0  0  0  0  0  0  0  0  0  0
   10.2930  -17.6980   14.3490 C   0  0  0  0  0  0  0  0  0  0  0  0
    9.0810  -18.1680   14.8460 C   0  0  0  0  0  0  0  0  0  0  0  0
    7.9470  -17.9880   14.0800 C   0  0  0  0  0  0  0  0  0  0  0  0
    7.9430  -17.3920   12.8670 N   0  0  0  0  0  0  0  0  0  0  0  0
    9.1140  -16.9480   12.3600 C   0  0  0  0  0  0  0  0  0  0  0  0
    9.1370  -16.3070   11.1030 N   0  0  0  0  0  0  0  0  0  0  0  0
   10.2010  -15.3100   10.9920 C   0  0  0  0  0  0  0  0  0  0  0  0
    9.0840  -17.2500    9.9850 C   0  0  0  0  0  0  0  0  0  0  0  0
   10.2980  -17.0850   13.0900 C   0  0  0  0  0  0  0  0  0  0  0  0
   12.3320  -19.0030   14.9970 C   0  0  0  0  0  0  0  0  0  0  0  0
   10.4016  -21.0543   13.7977 H   0  0  0  0  0  0  0  0  0  0  0  0
   10.9905  -19.8214   12.6316 H   0  0  0  0  0  0  0  0  0  0  0  0
   11.7030  -21.4704   12.6316 H   0  0  0  0  0  0  0  0  0  0  0  0
   13.7179  -21.9403   14.2292 H   0  0  0  0  0  0  0  0  0  0  0  0
   14.9940  -20.4830   15.9850 H   0  0  0  0  0  0  0  0  0  0  0  0
   13.4358  -16.2221   17.3992 H   0  0  0  0  0  0  0  0  0  0  0  0
   11.3658  -15.9267   16.1314 H   0  0  0  0  0  0  0  0  0  0  0  0
    9.0282  -18.6697   15.8235 H   0  0  0  0  0  0  0  0  0  0  0  0
    6.9892  -18.3514   14.4808 H   0  0  0  0  0  0  0  0  0  0  0  0
   10.5252  -15.0062   11.9983 H   0  0  0  0  0  0  0  0  0  0  0  0
   11.0532  -15.7423   10.4471 H   0  0  0  0  0  0  0  0  0  0  0  0
    9.8250  -14.4315   10.4471 H   0  0  0  0  0  0  0  0  0  0  0  0
    9.0263  -18.2772   10.3742 H   0  0  0  0  0  0  0  0  0  0  0  0
    8.1962  -17.0404    9.3703 H   0  0  0  0  0  0  0  0  0  0  0  0
    9.9897  -17.1412    9.3703 H   0  0  0  0  0  0  0  0  0  0  0  0
   11.2427  -16.7077   12.6715 H   0  0  0  0  0  0  0  0  0  0  0  0
  1  2  1  0
  2  3  2  0
  3  4  1  0
  4  5  1  0
  5  6  2  0
  6  7  1  0
  7  8  2  0
  8  9  1  0
  9 10  1  0
 10 11  2  0
 11 12  1  0
 12 13  2  0
 13 14  1  0
 14 15  1  0
 15 16  1  0
 15 17  1  0
 14 18  2  0
  9 19  2  0
 19  2  1  0
 19  5  1  0
 18 10  1  0
  1 20  1  0
  1 21  1  0
  1 22  1  0
  3 23  1  0
  4 24  1  0
  7 25  1  0
  8 26  1  0
 11 27  1  0
 12 28  1  0
 16 29  1  0
 16 30  1  0
 16 31  1  0
 17 32  1  0
 17 33  1  0
 17 34  1  0
 18 35  1  0
M  END
>  <meeko>  (6) 
{"is_sidechain": [false], "free_energy": -7.577, "intermolecular_energy": -8.43, "internal_energy": -0.594}

$$$$
4CXA_Inhib_42_docked
     RDKit          3D

 35 37  0  0  0  0  0  0  0  0999 V2000
    9.4880  -21.0920   13.8230 C   0  0  0  0  0  0  0  0  0  0  0  0
    8.7350  -20.2380   12.8660 C   0  0  0  0  0  0  0  0  0  0  0  0
    7.5340  -20.5730   12.2620 C   0  0  0  0  0  0  0  0  0  0  0  0
    7.1540  -19.5360   11.4550 N   0  0  0  0  0  0  0  0  0  0  0  0
    8.0780  -18.5330   11.5190 C   0  0  0  0  0  0  0  0  0  0  0  0
    7.9730  -17.3790   10.8350 N   0  0  0  0  0  0  0  0  0  0  0  0
    9.0050  -16.5390   11.0560 C   0  0  0  0  0  0  0  0  0  0  0  0
   10.0840  -16.7890   11.8890 C   0  0  0  0  0  0  0  0  0  0  0  0
   10.1510  -18.0080   12.5820 C   0  0  0  0  0  0  0  0  0  0  0  0
   11.2700  -18.3160   13.4680 C   0  0  0  0  0  0  0  0  0  0  0  0
   12.2460  -19.2360   13.0940 C   0  0  0  0  0  0  0  0  0  0  0  0
   13.2860  -19.4750   13.9680 C   0  0  0  0  0  0  0  0  0  0  0  0
   13.4110  -18.8790   15.1740 N   0  0  0  0  0  0  0  0  0  0  0  0
   12.4620  -17.9980   15.5620 C   0  0  0  0  0  0  0  0  0  0  0  0
   12.5760  -17.3480   16.8100 N   0  0  0  0  0  0  0  0  0  0  0  0
   13.7860  -17.7260   17.5390 C   0  0  0  0  0  0  0  0  0  0  0  0
   12.3600  -15.9040   16.7180 C   0  0  0  0  0  0  0  0  0  0  0  0
   11.3890  -17.6980   14.7190 C   0  0  0  0  0  0  0  0  0  0  0  0
    9.0930  -18.9280   12.3890 C   0  0  0  0  0  0  0  0  0  0  0  0
    9.2323  -20.8020   14.8528 H   0  0  0  0  0  0  0  0  0  0  0  0
    9.2206  -22.1468   13.6620 H   0  0  0  0  0  0  0  0  0  0  0  0
   10.5680  -20.9588   13.6620 H   0  0  0  0  0  0  0  0  0  0  0  0
    6.9805  -21.5125   12.4067 H   0  0  0  0  0  0  0  0  0  0  0  0
    6.3200  -19.4900   10.8880 H   0  0  0  0  0  0  0  0  0  0  0  0
    8.9888  -15.5730   10.5301 H   0  0  0  0  0  0  0  0  0  0  0  0
   10.8804  -16.0393   12.0061 H   0  0  0  0  0  0  0  0  0  0  0  0
   12.1892  -19.7582   12.1275 H   0  0  0  0  0  0  0  0  0  0  0  0
   14.0607  -20.1946   13.6646 H   0  0  0  0  0  0  0  0  0  0  0  0
   13.5959  -17.6666   18.6208 H   0  0  0  0  0  0  0  0  0  0  0  0
   14.0683  -18.7551   17.2723 H   0  0  0  0  0  0  0  0  0  0  0  0
   14.6040  -17.0406   17.2723 H   0  0  0  0  0  0  0  0  0  0  0  0
   12.2962  -15.4776   17.7300 H   0  0  0  0  0  0  0  0  0  0  0  0
   13.1989  -15.4415   16.1774 H   0  0  0  0  0  0  0  0  0  0  0  0
   11.4224  -15.7072   16.1774 H   0  0  0  0  0  0  0  0  0  0  0  0
   10.6304  -16.9694   15.0410 H   0  0  0  0  0  0  0  0  0  0  0  0
  1  2  1  0
  2  3  2  0
  3  4  1  0
  4  5  1  0
  5  6  2  0
  6  7  1  0
  7  8  2  0
  8  9  1  0
  9 10  1  0
 10 11  2  0
 11 12  1  0
 12 13  2  0
 13 14  1  0
 14 15  1  0
 15 16  1  0
 15 17  1  0
 14 18  2  0
  9 19  2  0
 19  2  1  0
 19  5  1  0
 18 10  1  0
  1 20  1  0
  1 21  1  0
  1 22  1  0
  3 23  1  0
  4 24  1  0
  7 25  1  0
  8 26  1  0
 11 27  1  0
 12 28  1  0
 16 29  1  0
 16 30  1  0
 16 31  1  0
 17 32  1  0
 17 33  1  0
 17 34  1  0
 18 35  1  0
M  END
>  <meeko>  (7) 
{"is_sidechain": [false], "free_energy": -7.57, "intermolecular_energy": -8.583, "internal_energy": -0.432}

$$$$
4CXA_Inhib_42_docked
     RDKit          3D

 35 37  0  0  0  0  0  0  0  0999 V2000
   10.1570  -16.1700   11.6010 C   0  0  0  0  0  0  0  0  0  0  0  0
    9.3130  -17.2830   11.0910 C   0  0  0  0  0  0  0  0  0  0  0  0
    8.7600  -17.3560    9.8230 C   0  0  0  0  0  0  0  0  0  0  0  0
    8.0550  -18.5240    9.7270 N   0  0  0  0  0  0  0  0  0  0  0  0
    8.1350  -19.2140   10.9030 C   0  0  0  0  0  0  0  0  0  0  0  0
    7.5440  -20.4050   11.1090 N   0  0  0  0  0  0  0  0  0  0  0  0
    7.7620  -20.8950   12.3470 C   0  0  0  0  0  0  0  0  0  0  0  0
    8.5080  -20.2770   13.3390 C   0  0  0  0  0  0  0  0  0  0  0  0
    9.1050  -19.0340   13.0780 C   0  0  0  0  0  0  0  0  0  0  0  0
    9.8960  -18.3460   14.0930 C   0  0  0  0  0  0  0  0  0  0  0  0
    9.3310  -17.3530   14.8880 C   0  0  0  0  0  0  0  0  0  0  0  0
   10.1260  -16.7470   15.8400 C   0  0  0  0  0  0  0  0  0  0  0  0
   11.4270  -17.0510   16.0400 N   0  0  0  0  0  0  0  0  0  0  0  0
   11.9980  -17.9970   15.2630 C   0  0  0  0  0  0  0  0  0  0  0  0
   13.3520  -18.3460   15.4610 N   0  0  0  0  0  0  0  0  0  0  0  0
   13.8740  -17.8890   16.7490 C   0  0  0  0  0  0  0  0  0  0  0  0
   13.6220  -19.7550   15.1730 C   0  0  0  0  0  0  0  0  0  0  0  0
   11.2470  -18.6620   14.2900 C   0  0  0  0  0  0  0  0  0  0  0  0
    8.9100  -18.4730   11.7920 C   0  0  0  0  0  0  0  0  0  0  0  0
   10.1502  -16.1790   12.7009 H   0  0  0  0  0  0  0  0  0  0  0  0
   11.1882  -16.2965   11.2397 H   0  0  0  0  0  0  0  0  0  0  0  0
    9.7569  -15.2112   11.2397 H   0  0  0  0  0  0  0  0  0  0  0  0
    8.8693  -16.6029    9.0287 H   0  0  0  0  0  0  0  0  0  0  0  0
    7.5440  -18.8550    8.9220 H   0  0  0  0  0  0  0  0  0  0  0  0
    7.3093  -21.8676   12.5901 H   0  0  0  0  0  0  0  0  0  0  0  0
    8.6308  -20.7565   14.3214 H   0  0  0  0  0  0  0  0  0  0  0  0
    8.2787  -17.0589   14.7610 H   0  0  0  0  0  0  0  0  0  0  0  0
    9.6731  -15.9702   16.4736 H   0  0  0  0  0  0  0  0  0  0  0  0
   13.3178  -18.3759   17.5636 H   0  0  0  0  0  0  0  0  0  0  0  0
   14.9399  -18.1495   16.8259 H   0  0  0  0  0  0  0  0  0  0  0  0
   13.7567  -16.7980   16.8259 H   0  0  0  0  0  0  0  0  0  0  0  0
   13.7281  -20.3085   16.1176 H   0  0  0  0  0  0  0  0  0  0  0  0
   12.7884  -20.1769   14.5924 H   0  0  0  0  0  0  0  0  0  0  0  0
   14.5525  -19.8388   14.5924 H   0  0  0  0  0  0  0  0  0  0  0  0
   11.7204  -19.4402   13.6734 H   0  0  0  0  0  0  0  0  0  0  0  0
  1  2  1  0
  2  3  2  0
  3  4  1  0
  4  5  1  0
  5  6  2  0
  6  7  1  0
  7  8  2  0
  8  9  1  0
  9 10  1  0
 10 11  2  0
 11 12  1  0
 12 13  2  0
 13 14  1  0
 14 15  1  0
 15 16  1  0
 15 17  1  0
 14 18  2  0
  9 19  2  0
 19  2  1  0
 19  5  1  0
 18 10  1  0
  1 20  1  0
  1 21  1  0
  1 22  1  0
  3 23  1  0
  4 24  1  0
  7 25  1  0
  8 26  1  0
 11 27  1  0
 12 28  1  0
 16 29  1  0
 16 30  1  0
 16 31  1  0
 17 32  1  0
 17 33  1  0
 17 34  1  0
 18 35  1  0
M  END
>  <meeko>  (8) 
{"is_sidechain": [false], "free_energy": -7.517, "intermolecular_energy": -8.386, "internal_energy": -0.571}

$$$$
4CXA_Inhib_42_docked
     RDKit          3D

 35 37  0  0  0  0  0  0  0  0999 V2000
    9.9330  -16.1820   11.6280 C   0  0  0  0  0  0  0  0  0  0  0  0
    9.5050  -17.5670   11.2970 C   0  0  0  0  0  0  0  0  0  0  0  0
    9.2120  -18.0370   10.0270 C   0  0  0  0  0  0  0  0  0  0  0  0
    8.8610  -19.3550   10.1260 N   0  0  0  0  0  0  0  0  0  0  0  0
    8.9190  -19.7560   11.4300 C   0  0  0  0  0  0  0  0  0  0  0  0
    8.6320  -21.0060   11.8380 N   0  0  0  0  0  0  0  0  0  0  0  0
    8.7580  -21.1680   13.1700 C   0  0  0  0  0  0  0  0  0  0  0  0
    9.1410  -20.1840   14.0700 C   0  0  0  0  0  0  0  0  0  0  0  0
    9.4290  -18.8940   13.5970 C   0  0  0  0  0  0  0  0  0  0  0  0
    9.8320  -17.8270   14.5080 C   0  0  0  0  0  0  0  0  0  0  0  0
    8.9510  -16.8030   14.8440 C   0  0  0  0  0  0  0  0  0  0  0  0
    9.3850  -15.8290   15.7200 C   0  0  0  0  0  0  0  0  0  0  0  0
   10.6210  -15.8010   16.2640 N   0  0  0  0  0  0  0  0  0  0  0  0
   11.4960  -16.7750   15.9330 C   0  0  0  0  0  0  0  0  0  0  0  0
   12.7890  -16.7790   16.4990 N   0  0  0  0  0  0  0  0  0  0  0  0
   12.7800  -16.5200   17.9390 C   0  0  0  0  0  0  0  0  0  0  0  0
   13.5760  -17.9490   16.1080 C   0  0  0  0  0  0  0  0  0  0  0  0
   11.1180  -17.8010   15.0630 C   0  0  0  0  0  0  0  0  0  0  0  0
    9.3140  -18.6680   12.2050 C   0  0  0  0  0  0  0  0  0  0  0  0
    9.9704  -16.0610   12.7207 H   0  0  0  0  0  0  0  0  0  0  0  0
   10.9307  -15.9954   11.2041 H   0  0  0  0  0  0  0  0  0  0  0  0
    9.2145  -15.4650   11.2041 H   0  0  0  0  0  0  0  0  0  0  0  0
    9.2545  -17.4501    9.0976 H   0  0  0  0  0  0  0  0  0  0  0  0
    8.5960  -19.9660    9.3660 H   0  0  0  0  0  0  0  0  0  0  0  0
    8.5385  -22.1655   13.5785 H   0  0  0  0  0  0  0  0  0  0  0  0
    9.2182  -20.4123   15.1433 H   0  0  0  0  0  0  0  0  0  0  0  0
    7.9355  -16.7710   14.4223 H   0  0  0  0  0  0  0  0  0  0  0  0
    8.6823  -15.0274   15.9915 H   0  0  0  0  0  0  0  0  0  0  0  0
   12.8132  -17.4752   18.4836 H   0  0  0  0  0  0  0  0  0  0  0  0
   13.6576  -15.9139   18.2080 H   0  0  0  0  0  0  0  0  0  0  0  0
   11.8624  -15.9762   18.2080 H   0  0  0  0  0  0  0  0  0  0  0  0
   13.9279  -18.4721   17.0094 H   0  0  0  0  0  0  0  0  0  0  0  0
   12.9506  -18.6285   15.5103 H   0  0  0  0  0  0  0  0  0  0  0  0
   14.4411  -17.6259   15.5103 H   0  0  0  0  0  0  0  0  0  0  0  0
   11.8364  -18.5952   14.8117 H   0  0  0  0  0  0  0  0  0  0  0  0
  1  2  1  0
  2  3  2  0
  3  4  1  0
  4  5  1  0
  5  6  2  0
  6  7  1  0
  7  8  2  0
  8  9  1  0
  9 10  1  0
 10 11  2  0
 11 12  1  0
 12 13  2  0
 13 14  1  0
 14 15  1  0
 15 16  1  0
 15 17  1  0
 14 18  2  0
  9 19  2  0
 19  2  1  0
 19  5  1  0
 18 10  1  0
  1 20  1  0
  1 21  1  0
  1 22  1  0
  3 23  1  0
  4 24  1  0
  7 25  1  0
  8 26  1  0
 11 27  1  0
 12 28  1  0
 16 29  1  0
 16 30  1  0
 16 31  1  0
 17 32  1  0
 17 33  1  0
 17 34  1  0
 18 35  1  0
M  END
>  <meeko>  (9) 
{"is_sidechain": [false], "free_energy": -7.423, "intermolecular_energy": -8.391, "internal_energy": -0.46}

$$$$
4CXA_Inhib_42_docked
     RDKit          3D

 35 37  0  0  0  0  0  0  0  0999 V2000
   12.7150  -19.9190   13.8640 C   0  0  0  0  0  0  0  0  0  0  0  0
   12.5350  -18.6960   14.6910 C   0  0  0  0  0  0  0  0  0  0  0  0
   13.5320  -18.0620   15.4150 C   0  0  0  0  0  0  0  0  0  0  0  0
   12.9850  -16.9750   16.0400 N   0  0  0  0  0  0  0  0  0  0  0  0
   11.6560  -16.8860   15.7400 C   0  0  0  0  0  0  0  0  0  0  0  0
   10.8510  -15.9140   16.2070 N   0  0  0  0  0  0  0  0  0  0  0  0
    9.5780  -16.0310   15.7770 C   0  0  0  0  0  0  0  0  0  0  0  0
    9.0980  -17.0270   14.9410 C   0  0  0  0  0  0  0  0  0  0  0  0
    9.9750  -18.0210   14.4800 C   0  0  0  0  0  0  0  0  0  0  0  0
    9.5120  -19.0910   13.6020 C   0  0  0  0  0  0  0  0  0  0  0  0
    9.2380  -20.3600   14.1040 C   0  0  0  0  0  0  0  0  0  0  0  0
    8.7910  -21.3270   13.2270 C   0  0  0  0  0  0  0  0  0  0  0  0
    8.6140  -21.1210   11.9030 N   0  0  0  0  0  0  0  0  0  0  0  0
    8.8950  -19.9010   11.3950 C   0  0  0  0  0  0  0  0  0  0  0  0
    8.7030  -19.6530   10.0180 N   0  0  0  0  0  0  0  0  0  0  0  0
    7.8940  -20.6810    9.3630 C   0  0  0  0  0  0  0  0  0  0  0  0
    8.2650  -18.2840    9.7450 C   0  0  0  0  0  0  0  0  0  0  0  0
    9.3370  -18.8710   12.2290 C   0  0  0  0  0  0  0  0  0  0  0  0
   11.3250  -17.9470   14.9000 C   0  0  0  0  0  0  0  0  0  0  0  0
   12.8433  -20.7910   14.5221 H   0  0  0  0  0  0  0  0  0  0  0  0
   11.8288  -20.0660   13.2291 H   0  0  0  0  0  0  0  0  0  0  0  0
   13.6060  -19.8045   13.2291 H   0  0  0  0  0  0  0  0  0  0  0  0
   14.5836  -18.3787   15.4766 H   0  0  0  0  0  0  0  0  0  0  0  0
   13.4670  -16.3190   16.6370 H   0  0  0  0  0  0  0  0  0  0  0  0
    8.8596  -15.2714   16.1188 H   0  0  0  0  0  0  0  0  0  0  0  0
    8.0396  -17.0382   14.6417 H   0  0  0  0  0  0  0  0  0  0  0  0
    9.3742  -20.5861   15.1719 H   0  0  0  0  0  0  0  0  0  0  0  0
    8.5652  -22.3255   13.6296 H   0  0  0  0  0  0  0  0  0  0  0  0
    7.4041  -21.3035   10.1262 H   0  0  0  0  0  0  0  0  0  0  0  0
    7.1290  -20.2008    8.7352 H   0  0  0  0  0  0  0  0  0  0  0  0
    8.5406  -21.3116    8.7352 H   0  0  0  0  0  0  0  0  0  0  0  0
    8.0963  -17.7566   10.6955 H   0  0  0  0  0  0  0  0  0  0  0  0
    9.0401  -17.7594    9.1671 H   0  0  0  0  0  0  0  0  0  0  0  0
    7.3293  -18.3067    9.1671 H   0  0  0  0  0  0  0  0  0  0  0  0
    9.5495  -17.8788   11.8043 H   0  0  0  0  0  0  0  0  0  0  0  0
  1  2  1  0
  2  3  2  0
  3  4  1  0
  4  5  1  0
  5  6  2  0
  6  7  1  0
  7  8  2  0
  8  9  1  0
  9 10  1  0
 10 11  2  0
 11 12  1  0
 12 13  2  0
 13 14  1  0
 14 15  1  0
 15 16  1  0
 15 17  1  0
 14 18  2  0
  9 19  2  0
 19  2  1  0
 19  5  1  0
 18 10  1  0
  1 20  1  0
  1 21  1  0
  1 22  1  0
  3 23  1  0
  4 24  1  0
  7 25  1  0
  8 26  1  0
 11 27  1  0
 12 28  1  0
 16 29  1  0
 16 30  1  0
 16 31  1  0
 17 32  1  0
 17 33  1  0
 17 34  1  0
 18 35  1  0
M  END
>  <meeko>  (10) 
{"is_sidechain": [false], "free_energy": -7.411, "intermolecular_energy": -8.309, "internal_energy": -0.528}

$$$$
4CXA_Inhib_42_docked
     RDKit          3D

 35 37  0  0  0  0  0  0  0  0999 V2000
   10.8120  -19.9010   12.3630 C   0  0  0  0  0  0  0  0  0  0  0  0
   11.8040  -19.8150   13.4680 C   0  0  0  0  0  0  0  0  0  0  0  0
   12.6080  -20.8530   13.9100 C   0  0  0  0  0  0  0  0  0  0  0  0
   13.3860  -20.3890   14.9340 N   0  0  0  0  0  0  0  0  0  0  0  0
   13.1090  -19.0730   15.1700 C   0  0  0  0  0  0  0  0  0  0  0  0
   13.7220  -18.3410   16.1180 N   0  0  0  0  0  0  0  0  0  0  0  0
   13.2840  -17.0660   16.1670 C   0  0  0  0  0  0  0  0  0  0  0  0
   12.3090  -16.5170   15.3490 C   0  0  0  0  0  0  0  0  0  0  0  0
   11.6950  -17.3200   14.3740 C   0  0  0  0  0  0  0  0  0  0  0  0
   10.6610  -16.7850   13.4940 C   0  0  0  0  0  0  0  0  0  0  0  0
   10.9980  -16.0570   12.3560 C   0  0  0  0  0  0  0  0  0  0  0  0
    9.9760  -15.5880   11.5550 C   0  0  0  0  0  0  0  0  0  0  0  0
    8.6640  -15.7820   11.8150 N   0  0  0  0  0  0  0  0  0  0  0  0
    8.3190  -16.4680   12.9270 C   0  0  0  0  0  0  0  0  0  0  0  0
    6.9570  -16.6990   13.2140 N   0  0  0  0  0  0  0  0  0  0  0  0
    6.0760  -15.6700   12.6610 C   0  0  0  0  0  0  0  0  0  0  0  0
    6.5380  -18.0690   12.9120 C   0  0  0  0  0  0  0  0  0  0  0  0
    9.3030  -16.9850   13.7730 C   0  0  0  0  0  0  0  0  0  0  0  0
   12.1180  -18.6680   14.2780 C   0  0  0  0  0  0  0  0  0  0  0  0
    9.7999  -19.9887   12.7849 H   0  0  0  0  0  0  0  0  0  0  0  0
   10.8737  -18.9941   11.7435 H   0  0  0  0  0  0  0  0  0  0  0  0
   11.0288  -20.7837   11.7435 H   0  0  0  0  0  0  0  0  0  0  0  0
   12.6186  -21.8761   13.5060 H   0  0  0  0  0  0  0  0  0  0  0  0
   14.0720  -20.9150   15.4550 H   0  0  0  0  0  0  0  0  0  0  0  0
   13.7393  -16.4060   16.9201 H   0  0  0  0  0  0  0  0  0  0  0  0
   12.0188  -15.4621   15.4624 H   0  0  0  0  0  0  0  0  0  0  0  0
   12.0501  -15.8608   12.1020 H   0  0  0  0  0  0  0  0  0  0  0  0
   10.2458  -15.0225   10.6509 H   0  0  0  0  0  0  0  0  0  0  0  0
    5.6003  -15.1144   13.4826 H   0  0  0  0  0  0  0  0  0  0  0  0
    6.6649  -14.9769   12.0423 H   0  0  0  0  0  0  0  0  0  0  0  0
    5.3004  -16.1451   12.0423 H   0  0  0  0  0  0  0  0  0  0  0  0
    6.3705  -18.6167   13.8512 H   0  0  0  0  0  0  0  0  0  0  0  0
    5.6055  -18.0471   12.3290 H   0  0  0  0  0  0  0  0  0  0  0  0
    7.3232  -18.5725   12.3290 H   0  0  0  0  0  0  0  0  0  0  0  0
    9.0086  -17.5546   14.6668 H   0  0  0  0  0  0  0  0  0  0  0  0
  1  2  1  0
  2  3  2  0
  3  4  1  0
  4  5  1  0
  5  6  2  0
  6  7  1  0
  7  8  2  0
  8  9  1  0
  9 10  1  0
 10 11  2  0
 11 12  1  0
 12 13  2  0
 13 14  1  0
 14 15  1  0
 15 16  1  0
 15 17  1  0
 14 18  2  0
  9 19  2  0
 19  2  1  0
 19  5  1  0
 18 10  1  0
  1 20  1  0
  1 21  1  0
  1 22  1  0
  3 23  1  0
  4 24  1  0
  7 25  1  0
  8 26  1  0
 11 27  1  0
 12 28  1  0
 16 29  1  0
 16 30  1  0
 16 31  1  0
 17 32  1  0
 17 33  1  0
 17 34  1  0
 18 35  1  0
M  END
>  <meeko>  (11) 
{"is_sidechain": [false], "free_energy": -7.392, "intermolecular_energy": -8.265, "internal_energy": -0.552}

$$$$
4CXA_Inhib_42_docked
     RDKit          3D

 35 37  0  0  0  0  0  0  0  0999 V2000
    9.3660  -21.2290   13.4270 C   0  0  0  0  0  0  0  0  0  0  0  0
    8.9430  -20.7510   12.0830 C   0  0  0  0  0  0  0  0  0  0  0  0
    8.4230  -21.5460   11.0750 C   0  0  0  0  0  0  0  0  0  0  0  0
    8.1510  -20.7500    9.9960 N   0  0  0  0  0  0  0  0  0  0  0  0
    8.4820  -19.4560   10.2780 C   0  0  0  0  0  0  0  0  0  0  0  0
    8.3220  -18.4400    9.4090 N   0  0  0  0  0  0  0  0  0  0  0  0
    8.7180  -17.2520    9.9080 C   0  0  0  0  0  0  0  0  0  0  0  0
    9.2400  -17.0430   11.1760 C   0  0  0  0  0  0  0  0  0  0  0  0
    9.3890  -18.1330   12.0470 C   0  0  0  0  0  0  0  0  0  0  0  0
    9.9370  -17.9600   13.3890 C   0  0  0  0  0  0  0  0  0  0  0  0
    9.1240  -17.5660   14.4480 C   0  0  0  0  0  0  0  0  0  0  0  0
    9.6970  -17.4320   15.6960 C   0  0  0  0  0  0  0  0  0  0  0  0
   11.0060  -17.6480   15.9530 N   0  0  0  0  0  0  0  0  0  0  0  0
   11.8130  -18.0110   14.9330 C   0  0  0  0  0  0  0  0  0  0  0  0
   13.1820  -18.2600   15.1750 N   0  0  0  0  0  0  0  0  0  0  0  0
   13.6530  -17.6700   16.4280 C   0  0  0  0  0  0  0  0  0  0  0  0
   13.5400  -19.6680   15.0060 C   0  0  0  0  0  0  0  0  0  0  0  0
   11.2960  -18.1800   13.6460 C   0  0  0  0  0  0  0  0  0  0  0  0
    8.9880  -19.4060   11.5750 C   0  0  0  0  0  0  0  0  0  0  0  0
    8.8494  -20.6452   14.2031 H   0  0  0  0  0  0  0  0  0  0  0  0
    9.1081  -22.2928   13.5358 H   0  0  0  0  0  0  0  0  0  0  0  0
   10.4533  -21.1024   13.5358 H   0  0  0  0  0  0  0  0  0  0  0  0
    8.2571  -22.6319   11.1322 H   0  0  0  0  0  0  0  0  0  0  0  0
    7.7640  -21.0460    9.1120 H   0  0  0  0  0  0  0  0  0  0  0  0
    8.6187  -16.3733    9.2538 H   0  0  0  0  0  0  0  0  0  0  0  0
    9.5343  -16.0325   11.4957 H   0  0  0  0  0  0  0  0  0  0  0  0
    8.0532  -17.3668   14.2940 H   0  0  0  0  0  0  0  0  0  0  0  0
    9.0490  -17.1311   16.5324 H   0  0  0  0  0  0  0  0  0  0  0  0
   13.2168  -18.2163   17.2773 H   0  0  0  0  0  0  0  0  0  0  0  0
   14.7501  -17.7353   16.4745 H   0  0  0  0  0  0  0  0  0  0  0  0
   13.3462  -16.6147   16.4745 H   0  0  0  0  0  0  0  0  0  0  0  0
   13.6593  -20.1371   15.9938 H   0  0  0  0  0  0  0  0  0  0  0  0
   12.7445  -20.1842   14.4486 H   0  0  0  0  0  0  0  0  0  0  0  0
   14.4854  -19.7416   14.4486 H   0  0  0  0  0  0  0  0  0  0  0  0
   11.9625  -18.4887   12.8272 H   0  0  0  0  0  0  0  0  0  0  0  0
  1  2  1  0
  2  3  2  0
  3  4  1  0
  4  5  1  0
  5  6  2  0
  6  7  1  0
  7  8  2  0
  8  9  1  0
  9 10  1  0
 10 11  2  0
 11 12  1  0
 12 13  2  0
 13 14  1  0
 14 15  1  0
 15 16  1  0
 15 17  1  0
 14 18  2  0
  9 19  2  0
 19  2  1  0
 19  5  1  0
 18 10  1  0
  1 20  1  0
  1 21  1  0
  1 22  1  0
  3 23  1  0
  4 24  1  0
  7 25  1  0
  8 26  1  0
 11 27  1  0
 12 28  1  0
 16 29  1  0
 16 30  1  0
 16 31  1  0
 17 32  1  0
 17 33  1  0
 17 34  1  0
 18 35  1  0
M  END
>  <meeko>  (12) 
{"is_sidechain": [false], "free_energy": -7.391, "intermolecular_energy": -8.243, "internal_energy": -0.572}

$$$$
4CXA_Inhib_42_docked
     RDKit          3D

 35 37  0  0  0  0  0  0  0  0999 V2000
    9.1380  -18.9970   14.3160 C   0  0  0  0  0  0  0  0  0  0  0  0
    8.8270  -20.0510   13.3140 C   0  0  0  0  0  0  0  0  0  0  0  0
    8.7520  -21.4090   13.5730 C   0  0  0  0  0  0  0  0  0  0  0  0
    8.4420  -22.0540   12.4080 N   0  0  0  0  0  0  0  0  0  0  0  0
    8.3120  -21.1470   11.3950 C   0  0  0  0  0  0  0  0  0  0  0  0
    8.0050  -21.4840   10.1290 N   0  0  0  0  0  0  0  0  0  0  0  0
    7.9310  -20.4210    9.3030 C   0  0  0  0  0  0  0  0  0  0  0  0
    8.1390  -19.1000    9.6690 C   0  0  0  0  0  0  0  0  0  0  0  0
    8.4590  -18.7960   11.0020 C   0  0  0  0  0  0  0  0  0  0  0  0
    8.6910  -17.4210   11.4310 C   0  0  0  0  0  0  0  0  0  0  0  0
    9.9840  -16.9300   11.5910 C   0  0  0  0  0  0  0  0  0  0  0  0
   10.1390  -15.6170   11.9870 C   0  0  0  0  0  0  0  0  0  0  0  0
    9.1110  -14.7790   12.2410 N   0  0  0  0  0  0  0  0  0  0  0  0
    7.8490  -15.2440   12.1100 C   0  0  0  0  0  0  0  0  0  0  0  0
    6.7550  -14.3850   12.3530 N   0  0  0  0  0  0  0  0  0  0  0  0
    7.1270  -12.9710   12.3280 C   0  0  0  0  0  0  0  0  0  0  0  0
    5.5870  -14.7100   11.5340 C   0  0  0  0  0  0  0  0  0  0  0  0
    7.6190  -16.5590   11.6980 C   0  0  0  0  0  0  0  0  0  0  0  0
    8.5490  -19.8760   11.9140 C   0  0  0  0  0  0  0  0  0  0  0  0
    9.0169  -19.4073   15.3294 H   0  0  0  0  0  0  0  0  0  0  0  0
   10.1750  -18.6562   14.1799 H   0  0  0  0  0  0  0  0  0  0  0  0
    8.4521  -18.1479   14.1799 H   0  0  0  0  0  0  0  0  0  0  0  0
    8.9142  -21.8877   14.5500 H   0  0  0  0  0  0  0  0  0  0  0  0
    8.3190  -23.0480   12.2840 H   0  0  0  0  0  0  0  0  0  0  0  0
    7.6847  -20.6185    8.2493 H   0  0  0  0  0  0  0  0  0  0  0  0
    8.0541  -18.2972    8.9218 H   0  0  0  0  0  0  0  0  0  0  0  0
   10.8585  -17.5713   11.4067 H   0  0  0  0  0  0  0  0  0  0  0  0
   11.1620  -15.2296   12.1027 H   0  0  0  0  0  0  0  0  0  0  0  0
    7.2248  -12.5993   13.3587 H   0  0  0  0  0  0  0  0  0  0  0  0
    8.0866  -12.8535   11.8033 H   0  0  0  0  0  0  0  0  0  0  0  0
    6.3494  -12.3965   11.8033 H   0  0  0  0  0  0  0  0  0  0  0  0
    4.7350  -14.9471   12.1881 H   0  0  0  0  0  0  0  0  0  0  0  0
    5.3332  -13.8484   10.8991 H   0  0  0  0  0  0  0  0  0  0  0  0
    5.8147  -15.5789   10.8991 H   0  0  0  0  0  0  0  0  0  0  0  0
    6.5868  -16.9211   11.5821 H   0  0  0  0  0  0  0  0  0  0  0  0
  1  2  1  0
  2  3  2  0
  3  4  1  0
  4  5  1  0
  5  6  2  0
  6  7  1  0
  7  8  2  0
  8  9  1  0
  9 10  1  0
 10 11  2  0
 11 12  1  0
 12 13  2  0
 13 14  1  0
 14 15  1  0
 15 16  1  0
 15 17  1  0
 14 18  2  0
  9 19  2  0
 19  2  1  0
 19  5  1  0
 18 10  1  0
  1 20  1  0
  1 21  1  0
  1 22  1  0
  3 23  1  0
  4 24  1  0
  7 25  1  0
  8 26  1  0
 11 27  1  0
 12 28  1  0
 16 29  1  0
 16 30  1  0
 16 31  1  0
 17 32  1  0
 17 33  1  0
 17 34  1  0
 18 35  1  0
M  END
>  <meeko>  (13) 
{"is_sidechain": [false], "free_energy": -7.33, "intermolecular_energy": -8.21, "internal_energy": -0.537}

$$$$
4CXA_Inhib_42_docked
     RDKit          3D

 35 37  0  0  0  0  0  0  0  0999 V2000
    6.3540  -16.5480   11.1770 C   0  0  0  0  0  0  0  0  0  0  0  0
    5.8410  -15.1600   11.3300 C   0  0  0  0  0  0  0  0  0  0  0  0
    4.6160  -14.7010   10.8770 C   0  0  0  0  0  0  0  0  0  0  0  0
    4.5020  -13.3780   11.2050 N   0  0  0  0  0  0  0  0  0  0  0  0
    5.6260  -12.9640   11.8610 C   0  0  0  0  0  0  0  0  0  0  0  0
    5.8040  -11.7090   12.3140 N   0  0  0  0  0  0  0  0  0  0  0  0
    6.9900  -11.5340   12.9310 C   0  0  0  0  0  0  0  0  0  0  0  0
    7.9590  -12.5090   13.1070 C   0  0  0  0  0  0  0  0  0  0  0  0
    7.7300  -13.8050   12.6160 C   0  0  0  0  0  0  0  0  0  0  0  0
    8.7230  -14.8620   12.7760 C   0  0  0  0  0  0  0  0  0  0  0  0
    9.6930  -15.0840   11.8020 C   0  0  0  0  0  0  0  0  0  0  0  0
   10.6130  -16.0900   12.0150 C   0  0  0  0  0  0  0  0  0  0  0  0
   10.6240  -16.8840   13.1090 N   0  0  0  0  0  0  0  0  0  0  0  0
    9.6770  -16.6950   14.0540 C   0  0  0  0  0  0  0  0  0  0  0  0
    9.6740  -17.4990   15.2150 N   0  0  0  0  0  0  0  0  0  0  0  0
    8.3250  -17.8320   15.6730 C   0  0  0  0  0  0  0  0  0  0  0  0
   10.5700  -18.6520   15.1080 C   0  0  0  0  0  0  0  0  0  0  0  0
    8.7240  -15.6850   13.9100 C   0  0  0  0  0  0  0  0  0  0  0  0
    6.4980  -14.0460   11.9600 C   0  0  0  0  0  0  0  0  0  0  0  0
    6.5174  -16.9901   12.1709 H   0  0  0  0  0  0  0  0  0  0  0  0
    5.6195  -17.1514   10.6235 H   0  0  0  0  0  0  0  0  0  0  0  0
    7.3044  -16.5287   10.6235 H   0  0  0  0  0  0  0  0  0  0  0  0
    3.8622  -15.2988   10.3437 H   0  0  0  0  0  0  0  0  0  0  0  0
    3.7180  -12.7740   11.0070 H   0  0  0  0  0  0  0  0  0  0  0  0
    7.2070  -10.5316   13.3287 H   0  0  0  0  0  0  0  0  0  0  0  0
    8.8988  -12.2702   13.6264 H   0  0  0  0  0  0  0  0  0  0  0  0
    9.7250  -14.4738   10.8873 H   0  0  0  0  0  0  0  0  0  0  0  0
   11.3841  -16.2559   11.2483 H   0  0  0  0  0  0  0  0  0  0  0  0
    8.3021  -17.8376   16.7727 H   0  0  0  0  0  0  0  0  0  0  0  0
    7.6141  -17.0824   15.2953 H   0  0  0  0  0  0  0  0  0  0  0  0
    8.0446  -18.8263   15.2953 H   0  0  0  0  0  0  0  0  0  0  0  0
   10.8409  -19.0006   16.1155 H   0  0  0  0  0  0  0  0  0  0  0  0
   10.0620  -19.4619   14.5640 H   0  0  0  0  0  0  0  0  0  0  0  0
   11.4803  -18.3597   14.5640 H   0  0  0  0  0  0  0  0  0  0  0  0
    7.9671  -15.5340   14.6938 H   0  0  0  0  0  0  0  0  0  0  0  0
  1  2  1  0
  2  3  2  0
  3  4  1  0
  4  5  1  0
  5  6  2  0
  6  7  1  0
  7  8  2  0
  8  9  1  0
  9 10  1  0
 10 11  2  0
 11 12  1  0
 12 13  2  0
 13 14  1  0
 14 15  1  0
 15 16  1  0
 15 17  1  0
 14 18  2  0
  9 19  2  0
 19  2  1  0
 19  5  1  0
 18 10  1  0
  1 20  1  0
  1 21  1  0
  1 22  1  0
  3 23  1  0
  4 24  1  0
  7 25  1  0
  8 26  1  0
 11 27  1  0
 12 28  1  0
 16 29  1  0
 16 30  1  0
 16 31  1  0
 17 32  1  0
 17 33  1  0
 17 34  1  0
 18 35  1  0
M  END
>  <meeko>  (14) 
{"is_sidechain": [false], "free_energy": -7.043, "intermolecular_energy": -7.834, "internal_energy": -0.594}

$$$$
4CXA_Inhib_42_docked
     RDKit          3D

 35 37  0  0  0  0  0  0  0  0999 V2000
   10.4270  -15.9540   12.3880 C   0  0  0  0  0  0  0  0  0  0  0  0
   11.2240  -16.9550   13.1450 C   0  0  0  0  0  0  0  0  0  0  0  0
   12.3480  -16.6790   13.9060 C   0  0  0  0  0  0  0  0  0  0  0  0
   12.8000  -17.8500   14.4490 N   0  0  0  0  0  0  0  0  0  0  0  0
   11.9970  -18.8840   14.0600 C   0  0  0  0  0  0  0  0  0  0  0  0
   12.1890  -20.1600   14.4410 N   0  0  0  0  0  0  0  0  0  0  0  0
   11.2700  -21.0060   13.9320 C   0  0  0  0  0  0  0  0  0  0  0  0
   10.2190  -20.6500   13.1010 C   0  0  0  0  0  0  0  0  0  0  0  0
   10.0590  -19.3060   12.7300 C   0  0  0  0  0  0  0  0  0  0  0  0
    8.9690  -18.8870   11.8540 C   0  0  0  0  0  0  0  0  0  0  0  0
    9.0280  -19.1110   10.4810 C   0  0  0  0  0  0  0  0  0  0  0  0
    7.9620  -18.7030    9.7070 C   0  0  0  0  0  0  0  0  0  0  0  0
    6.8640  -18.0870   10.1980 N   0  0  0  0  0  0  0  0  0  0  0  0
    6.7990  -17.8430   11.5250 C   0  0  0  0  0  0  0  0  0  0  0  0
    5.6580  -17.2140   12.0680 N   0  0  0  0  0  0  0  0  0  0  0  0
    5.9360  -15.8730   12.5810 C   0  0  0  0  0  0  0  0  0  0  0  0
    4.4960  -17.2850   11.1800 C   0  0  0  0  0  0  0  0  0  0  0  0
    7.8380  -18.2420   12.3700 C   0  0  0  0  0  0  0  0  0  0  0  0
   10.9960  -18.3730   13.2360 C   0  0  0  0  0  0  0  0  0  0  0  0
    9.9015  -15.2940   13.0939 H   0  0  0  0  0  0  0  0  0  0  0  0
   11.0975  -15.3542   11.7550 H   0  0  0  0  0  0  0  0  0  0  0  0
    9.6923  -16.4731   11.7550 H   0  0  0  0  0  0  0  0  0  0  0  0
   12.8002  -15.6865   14.0493 H   0  0  0  0  0  0  0  0  0  0  0  0
   13.6020  -17.9640   15.0520 H   0  0  0  0  0  0  0  0  0  0  0  0
   11.3623  -22.0691   14.1991 H   0  0  0  0  0  0  0  0  0  0  0  0
    9.5169  -21.4140   12.7358 H   0  0  0  0  0  0  0  0  0  0  0  0
    9.9017  -19.6004   10.0258 H   0  0  0  0  0  0  0  0  0  0  0  0
    8.0083  -18.8904    8.6241 H   0  0  0  0  0  0  0  0  0  0  0  0
    5.9319  -15.8930   13.6808 H   0  0  0  0  0  0  0  0  0  0  0  0
    6.9221  -15.5410   12.2240 H   0  0  0  0  0  0  0  0  0  0  0  0
    5.1632  -15.1764   12.2240 H   0  0  0  0  0  0  0  0  0  0  0  0
    3.5772  -17.3411   11.7822 H   0  0  0  0  0  0  0  0  0  0  0  0
    4.4641  -16.3871   10.5453 H   0  0  0  0  0  0  0  0  0  0  0  0
    4.5737  -18.1801   10.5453 H   0  0  0  0  0  0  0  0  0  0  0  0
    7.7669  -18.0477   13.4504 H   0  0  0  0  0  0  0  0  0  0  0  0
  1  2  1  0
  2  3  2  0
  3  4  1  0
  4  5  1  0
  5  6  2  0
  6  7  1  0
  7  8  2  0
  8  9  1  0
  9 10  1  0
 10 11  2  0
 11 12  1  0
 12 13  2  0
 13 14  1  0
 14 15  1  0
 15 16  1  0
 15 17  1  0
 14 18  2  0
  9 19  2  0
 19  2  1  0
 19  5  1  0
 18 10  1  0
  1 20  1  0
  1 21  1  0
  1 22  1  0
  3 23  1  0
  4 24  1  0
  7 25  1  0
  8 26  1  0
 11 27  1  0
 12 28  1  0
 16 29  1  0
 16 30  1  0
 16 31  1  0
 17 32  1  0
 17 33  1  0
 17 34  1  0
 18 35  1  0
M  END
>  <meeko>  (15) 
{"is_sidechain": [false], "free_energy": -6.941, "intermolecular_energy": -7.83, "internal_energy": -0.483}

$$$$
4CXA_Inhib_42_docked
     RDKit          3D

 35 37  0  0  0  0  0  0  0  0999 V2000
    7.9680  -18.3280    9.7470 C   0  0  0  0  0  0  0  0  0  0  0  0
    8.4740  -19.3670   10.6830 C   0  0  0  0  0  0  0  0  0  0  0  0
    8.3230  -20.7350   10.5230 C   0  0  0  0  0  0  0  0  0  0  0  0
    8.9220  -21.3610   11.5810 N   0  0  0  0  0  0  0  0  0  0  0  0
    9.4600  -20.4340   12.4260 C   0  0  0  0  0  0  0  0  0  0  0  0
   10.1200  -20.7500   13.5560 N   0  0  0  0  0  0  0  0  0  0  0  0
   10.5620  -19.6680   14.2290 C   0  0  0  0  0  0  0  0  0  0  0  0
   10.3830  -18.3490   13.8420 C   0  0  0  0  0  0  0  0  0  0  0  0
    9.6870  -18.0680   12.6560 C   0  0  0  0  0  0  0  0  0  0  0  0
    9.4720  -16.6940   12.2120 C   0  0  0  0  0  0  0  0  0  0  0  0
   10.4340  -16.0270   11.4600 C   0  0  0  0  0  0  0  0  0  0  0  0
   10.1680  -14.7330   11.0590 C   0  0  0  0  0  0  0  0  0  0  0  0
    9.0320  -14.0680   11.3630 N   0  0  0  0  0  0  0  0  0  0  0  0
    8.0960  -14.6930   12.1100 C   0  0  0  0  0  0  0  0  0  0  0  0
    6.8930  -14.0270   12.4290 N   0  0  0  0  0  0  0  0  0  0  0  0
    7.0290  -12.5700   12.4150 C   0  0  0  0  0  0  0  0  0  0  0  0
    5.7490  -14.5270   11.6660 C   0  0  0  0  0  0  0  0  0  0  0  0
    8.2940  -16.0080   12.5370 C   0  0  0  0  0  0  0  0  0  0  0  0
    9.2010  -19.1670   11.9080 C   0  0  0  0  0  0  0  0  0  0  0  0
    7.5575  -17.4850   10.3221 H   0  0  0  0  0  0  0  0  0  0  0  0
    8.7936  -17.9720    9.1133 H   0  0  0  0  0  0  0  0  0  0  0  0
    7.1787  -18.7585    9.1133 H   0  0  0  0  0  0  0  0  0  0  0  0
    7.8090  -21.2326    9.6874 H   0  0  0  0  0  0  0  0  0  0  0  0
    8.9760  -22.3570   11.7390 H   0  0  0  0  0  0  0  0  0  0  0  0
   11.1114  -19.8475   15.1649 H   0  0  0  0  0  0  0  0  0  0  0  0
   10.7826  -17.5303   14.4585 H   0  0  0  0  0  0  0  0  0  0  0  0
   11.3814  -16.5177   11.1921 H   0  0  0  0  0  0  0  0  0  0  0  0
   10.9264  -14.2123   10.4559 H   0  0  0  0  0  0  0  0  0  0  0  0
    7.0640  -12.1951   13.4485 H   0  0  0  0  0  0  0  0  0  0  0  0
    7.9569  -12.2933   11.8930 H   0  0  0  0  0  0  0  0  0  0  0  0
    6.1684  -12.1264   11.8930 H   0  0  0  0  0  0  0  0  0  0  0  0
    4.9668  -14.8689   12.3597 H   0  0  0  0  0  0  0  0  0  0  0  0
    5.3504  -13.7210   11.0323 H   0  0  0  0  0  0  0  0  0  0  0  0
    6.0698  -15.3670   11.0323 H   0  0  0  0  0  0  0  0  0  0  0  0
    7.5182  -16.5098   13.1339 H   0  0  0  0  0  0  0  0  0  0  0  0
  1  2  1  0
  2  3  2  0
  3  4  1  0
  4  5  1  0
  5  6  2  0
  6  7  1  0
  7  8  2  0
  8  9  1  0
  9 10  1  0
 10 11  2  0
 11 12  1  0
 12 13  2  0
 13 14  1  0
 14 15  1  0
 15 16  1  0
 15 17  1  0
 14 18  2  0
  9 19  2  0
 19  2  1  0
 19  5  1  0
 18 10  1  0
  1 20  1  0
  1 21  1  0
  1 22  1  0
  3 23  1  0
  4 24  1  0
  7 25  1  0
  8 26  1  0
 11 27  1  0
 12 28  1  0
 16 29  1  0
 16 30  1  0
 16 31  1  0
 17 32  1  0
 17 33  1  0
 17 34  1  0
 18 35  1  0
M  END
>  <meeko>  (16) 
{"is_sidechain": [false], "free_energy": -6.882, "intermolecular_energy": -7.669, "internal_energy": -0.578}

$$$$
4CXA_Inhib_42_docked
     RDKit          3D

 35 37  0  0  0  0  0  0  0  0999 V2000
    9.3510  -21.1350   12.5180 C   0  0  0  0  0  0  0  0  0  0  0  0
   10.4220  -20.4030   13.2450 C   0  0  0  0  0  0  0  0  0  0  0  0
   11.3590  -20.9770   14.0890 C   0  0  0  0  0  0  0  0  0  0  0  0
   12.1750  -19.9880   14.5640 N   0  0  0  0  0  0  0  0  0  0  0  0
   11.7920  -18.7820   14.0500 C   0  0  0  0  0  0  0  0  0  0  0  0
   12.4120  -17.6220   14.3340 N   0  0  0  0  0  0  0  0  0  0  0  0
   11.8580  -16.5620   13.7100 C   0  0  0  0  0  0  0  0  0  0  0  0
   10.7660  -16.6080   12.8570 C   0  0  0  0  0  0  0  0  0  0  0  0
   10.1510  -17.8420   12.5920 C   0  0  0  0  0  0  0  0  0  0  0  0
    8.9970  -17.9380   11.7030 C   0  0  0  0  0  0  0  0  0  0  0  0
    9.1290  -18.4390   10.4120 C   0  0  0  0  0  0  0  0  0  0  0  0
    7.9990  -18.5170    9.6230 C   0  0  0  0  0  0  0  0  0  0  0  0
    6.7710  -18.1230   10.0240 N   0  0  0  0  0  0  0  0  0  0  0  0
    6.6280  -17.6150   11.2680 C   0  0  0  0  0  0  0  0  0  0  0  0
    5.3530  -17.2110   11.7190 N   0  0  0  0  0  0  0  0  0  0  0  0
    5.4060  -16.0550   12.6140 C   0  0  0  0  0  0  0  0  0  0  0  0
    4.3830  -17.0790   10.6310 C   0  0  0  0  0  0  0  0  0  0  0  0
    7.7270  -17.5210   12.1240 C   0  0  0  0  0  0  0  0  0  0  0  0
   10.6930  -18.9900   13.2200 C   0  0  0  0  0  0  0  0  0  0  0  0
    8.6683  -21.6016   13.2435 H   0  0  0  0  0  0  0  0  0  0  0  0
    8.7894  -20.4309   11.8864 H   0  0  0  0  0  0  0  0  0  0  0  0
    9.8030  -21.9139   11.8864 H   0  0  0  0  0  0  0  0  0  0  0  0
   11.4337  -22.0465   14.3351 H   0  0  0  0  0  0  0  0  0  0  0  0
   12.9510  -20.1020   15.1990 H   0  0  0  0  0  0  0  0  0  0  0  0
   12.3115  -15.5768   13.8937 H   0  0  0  0  0  0  0  0  0  0  0  0
   10.3851  -15.6866   12.3923 H   0  0  0  0  0  0  0  0  0  0  0  0
   10.1079  -18.7644   10.0300 H   0  0  0  0  0  0  0  0  0  0  0  0
    8.1051  -18.9245    8.6068 H   0  0  0  0  0  0  0  0  0  0  0  0
    5.3902  -16.3991   13.6587 H   0  0  0  0  0  0  0  0  0  0  0  0
    6.3310  -15.4895   12.4281 H   0  0  0  0  0  0  0  0  0  0  0  0
    4.5366  -15.4072   12.4281 H   0  0  0  0  0  0  0  0  0  0  0  0
    3.3761  -16.9420   11.0521 H   0  0  0  0  0  0  0  0  0  0  0  0
    4.6431  -16.2080   10.0116 H   0  0  0  0  0  0  0  0  0  0  0  0
    4.4008  -17.9879   10.0116 H   0  0  0  0  0  0  0  0  0  0  0  0
    7.5948  -17.1159   13.1381 H   0  0  0  0  0  0  0  0  0  0  0  0
  1  2  1  0
  2  3  2  0
  3  4  1  0
  4  5  1  0
  5  6  2  0
  6  7  1  0
  7  8  2  0
  8  9  1  0
  9 10  1  0
 10 11  2  0
 11 12  1  0
 12 13  2  0
 13 14  1  0
 14 15  1  0
 15 16  1  0
 15 17  1  0
 14 18  2  0
  9 19  2  0
 19  2  1  0
 19  5  1  0
 18 10  1  0
  1 20  1  0
  1 21  1  0
  1 22  1  0
  3 23  1  0
  4 24  1  0
  7 25  1  0
  8 26  1  0
 11 27  1  0
 12 28  1  0
 16 29  1  0
 16 30  1  0
 16 31  1  0
 17 32  1  0
 17 33  1  0
 17 34  1  0
 18 35  1  0
M  END
>  <meeko>  (17) 
{"is_sidechain": [false], "free_energy": -6.866, "intermolecular_energy": -7.768, "internal_energy": -0.462}

$$$$
4CXA_Inhib_42_docked
     RDKit          3D

 35 37  0  0  0  0  0  0  0  0999 V2000
    7.8620  -19.2510   13.3300 C   0  0  0  0  0  0  0  0  0  0  0  0
    9.1030  -20.0490   13.5130 C   0  0  0  0  0  0  0  0  0  0  0  0
    9.1910  -21.4290   13.4280 C   0  0  0  0  0  0  0  0  0  0  0  0
   10.4900  -21.7920   13.6500 N   0  0  0  0  0  0  0  0  0  0  0  0
   11.2520  -20.6820   13.8780 C   0  0  0  0  0  0  0  0  0  0  0  0
   12.5740  -20.7240   14.1240 N   0  0  0  0  0  0  0  0  0  0  0  0
   13.1130  -19.5030   14.3180 C   0  0  0  0  0  0  0  0  0  0  0  0
   12.4230  -18.3010   14.2780 C   0  0  0  0  0  0  0  0  0  0  0  0
   11.0430  -18.3070   14.0200 C   0  0  0  0  0  0  0  0  0  0  0  0
   10.2760  -17.0670   13.9720 C   0  0  0  0  0  0  0  0  0  0  0  0
    9.7410  -16.5120   15.1320 C   0  0  0  0  0  0  0  0  0  0  0  0
    9.0360  -15.3310   15.0260 C   0  0  0  0  0  0  0  0  0  0  0  0
    8.8210  -14.6830   13.8600 N   0  0  0  0  0  0  0  0  0  0  0  0
    9.3150  -15.2180   12.7220 C   0  0  0  0  0  0  0  0  0  0  0  0
    9.1200  -14.5530   11.4910 N   0  0  0  0  0  0  0  0  0  0  0  0
    8.6400  -13.1810   11.6560 C   0  0  0  0  0  0  0  0  0  0  0  0
   10.2650  -14.6810   10.5900 C   0  0  0  0  0  0  0  0  0  0  0  0
   10.0520  -16.4040   12.7590 C   0  0  0  0  0  0  0  0  0  0  0  0
   10.4250  -19.5630   13.8070 C   0  0  0  0  0  0  0  0  0  0  0  0
    7.4486  -18.9852   14.3141 H   0  0  0  0  0  0  0  0  0  0  0  0
    8.0954  -18.3333   12.7703 H   0  0  0  0  0  0  0  0  0  0  0  0
    7.1239  -19.8442   12.7703 H   0  0  0  0  0  0  0  0  0  0  0  0
    8.3576  -22.1155   13.2177 H   0  0  0  0  0  0  0  0  0  0  0  0
   10.8610  -22.7320   13.6510 H   0  0  0  0  0  0  0  0  0  0  0  0
   14.1922  -19.4568   14.5257 H   0  0  0  0  0  0  0  0  0  0  0  0
   12.9520  -17.3514   14.4469 H   0  0  0  0  0  0  0  0  0  0  0  0
    9.8771  -17.0025   16.1071 H   0  0  0  0  0  0  0  0  0  0  0  0
    8.6242  -14.8904   15.9459 H   0  0  0  0  0  0  0  0  0  0  0  0
    8.5583  -12.9475   12.7278 H   0  0  0  0  0  0  0  0  0  0  0  0
    9.3481  -12.4853   11.1821 H   0  0  0  0  0  0  0  0  0  0  0  0
    7.6526  -13.0785   11.1821 H   0  0  0  0  0  0  0  0  0  0  0  0
   11.1870  -14.7841   11.1811 H   0  0  0  0  0  0  0  0  0  0  0  0
   10.1348  -15.5702    9.9557 H   0  0  0  0  0  0  0  0  0  0  0  0
   10.3344  -13.7850    9.9557 H   0  0  0  0  0  0  0  0  0  0  0  0
   10.4603  -16.8211   11.8266 H   0  0  0  0  0  0  0  0  0  0  0  0
  1  2  1  0
  2  3  2  0
  3  4  1  0
  4  5  1  0
  5  6  2  0
  6  7  1  0
  7  8  2  0
  8  9  1  0
  9 10  1  0
 10 11  2  0
 11 12  1  0
 12 13  2  0
 13 14  1  0
 14 15  1  0
 15 16  1  0
 15 17  1  0
 14 18  2  0
  9 19  2  0
 19  2  1  0
 19  5  1  0
 18 10  1  0
  1 20  1  0
  1 21  1  0
  1 22  1  0
  3 23  1  0
  4 24  1  0
  7 25  1  0
  8 26  1  0
 11 27  1  0
 12 28  1  0
 16 29  1  0
 16 30  1  0
 16 31  1  0
 17 32  1  0
 17 33  1  0
 17 34  1  0
 18 35  1  0
M  END
>  <meeko>  (18) 
{"is_sidechain": [false], "free_energy": -6.811, "intermolecular_energy": -7.58, "internal_energy": -0.587}

$$$$
4CXA_Inhib_42_docked
     RDKit          3D

 35 37  0  0  0  0  0  0  0  0999 V2000
    5.1680  -16.2570   10.2260 C   0  0  0  0  0  0  0  0  0  0  0  0
    5.3830  -14.9370   10.8770 C   0  0  0  0  0  0  0  0  0  0  0  0
    4.4870  -13.8810   10.8670 C   0  0  0  0  0  0  0  0  0  0  0  0
    5.0360  -12.8440   11.5700 N   0  0  0  0  0  0  0  0  0  0  0  0
    6.2680  -13.2000   12.0380 C   0  0  0  0  0  0  0  0  0  0  0  0
    7.0500  -12.3860   12.7710 N   0  0  0  0  0  0  0  0  0  0  0  0
    8.2220  -12.9530   13.1210 C   0  0  0  0  0  0  0  0  0  0  0  0
    8.6280  -14.2360   12.7860 C   0  0  0  0  0  0  0  0  0  0  0  0
    7.7790  -15.0490   12.0180 C   0  0  0  0  0  0  0  0  0  0  0  0
    8.1660  -16.4040   11.6400 C   0  0  0  0  0  0  0  0  0  0  0  0
    8.7730  -16.6590   10.4130 C   0  0  0  0  0  0  0  0  0  0  0  0
    9.1280  -17.9590   10.1170 C   0  0  0  0  0  0  0  0  0  0  0  0
    8.9120  -19.0060   10.9430 N   0  0  0  0  0  0  0  0  0  0  0  0
    8.3050  -18.7810   12.1290 C   0  0  0  0  0  0  0  0  0  0  0  0
    8.0810  -19.8550   13.0180 N   0  0  0  0  0  0  0  0  0  0  0  0
    8.2160  -21.1620   12.3750 C   0  0  0  0  0  0  0  0  0  0  0  0
    8.8320  -19.7230   14.2660 C   0  0  0  0  0  0  0  0  0  0  0  0
    7.9320  -17.4870   12.4990 C   0  0  0  0  0  0  0  0  0  0  0  0
    6.5330  -14.5040   11.6250 C   0  0  0  0  0  0  0  0  0  0  0  0
    5.0420  -17.0304   10.9980 H   0  0  0  0  0  0  0  0  0  0  0  0
    4.2650  -16.2140    9.5993 H   0  0  0  0  0  0  0  0  0  0  0  0
    6.0379  -16.5028    9.5993 H   0  0  0  0  0  0  0  0  0  0  0  0
    3.5020  -13.8769   10.3773 H   0  0  0  0  0  0  0  0  0  0  0  0
    4.6160  -11.9410   11.7370 H   0  0  0  0  0  0  0  0  0  0  0  0
    8.9147  -12.3467   13.7232 H   0  0  0  0  0  0  0  0  0  0  0  0
    9.6062  -14.6133   13.1189 H   0  0  0  0  0  0  0  0  0  0  0  0
    8.9645  -15.8451    9.6982 H   0  0  0  0  0  0  0  0  0  0  0  0
    9.6160  -18.1546    9.1508 H   0  0  0  0  0  0  0  0  0  0  0  0
    8.2967  -21.9430   13.1454 H   0  0  0  0  0  0  0  0  0  0  0  0
    7.3330  -21.3552   11.7481 H   0  0  0  0  0  0  0  0  0  0  0  0
    9.1198  -21.1706   11.7481 H   0  0  0  0  0  0  0  0  0  0  0  0
    8.1487  -19.8431   15.1196 H   0  0  0  0  0  0  0  0  0  0  0  0
    9.6116  -20.4979   14.3085 H   0  0  0  0  0  0  0  0  0  0  0  0
    9.3006  -18.7287   14.3085 H   0  0  0  0  0  0  0  0  0  0  0  0
    7.4503  -17.3160   13.4730 H   0  0  0  0  0  0  0  0  0  0  0  0
  1  2  1  0
  2  3  2  0
  3  4  1  0
  4  5  1  0
  5  6  2  0
  6  7  1  0
  7  8  2  0
  8  9  1  0
  9 10  1  0
 10 11  2  0
 11 12  1  0
 12 13  2  0
 13 14  1  0
 14 15  1  0
 15 16  1  0
 15 17  1  0
 14 18  2  0
  9 19  2  0
 19  2  1  0
 19  5  1  0
 18 10  1  0
  1 20  1  0
  1 21  1  0
  1 22  1  0
  3 23  1  0
  4 24  1  0
  7 25  1  0
  8 26  1  0
 11 27  1  0
 12 28  1  0
 16 29  1  0
 16 30  1  0
 16 31  1  0
 17 32  1  0
 17 33  1  0
 17 34  1  0
 18 35  1  0
M  END
>  <meeko>  (19) 
{"is_sidechain": [false], "free_energy": -6.752, "intermolecular_energy": -7.529, "internal_energy": -0.573}

$$$$
4CXA_Inhib_42_docked
     RDKit          3D

 35 37  0  0  0  0  0  0  0  0999 V2000
   11.6400  -17.2230   13.9540 C   0  0  0  0  0  0  0  0  0  0  0  0
   11.1230  -18.5920   13.6910 C   0  0  0  0  0  0  0  0  0  0  0  0
   11.6040  -19.7570   14.2670 C   0  0  0  0  0  0  0  0  0  0  0  0
   10.8770  -20.8090   13.7840 N   0  0  0  0  0  0  0  0  0  0  0  0
    9.9330  -20.3580   12.9060 C   0  0  0  0  0  0  0  0  0  0  0  0
    9.0620  -21.1630   12.2700 N   0  0  0  0  0  0  0  0  0  0  0  0
    8.2250  -20.4930   11.4520 C   0  0  0  0  0  0  0  0  0  0  0  0
    8.2190  -19.1210   11.2520 C   0  0  0  0  0  0  0  0  0  0  0  0
    9.1480  -18.3220   11.9370 C   0  0  0  0  0  0  0  0  0  0  0  0
    9.1800  -16.8740   11.7540 C   0  0  0  0  0  0  0  0  0  0  0  0
   10.2030  -16.2670   11.0310 C   0  0  0  0  0  0  0  0  0  0  0  0
   10.1730  -14.8960   10.8820 C   0  0  0  0  0  0  0  0  0  0  0  0
    9.2140  -14.1010   11.4060 N   0  0  0  0  0  0  0  0  0  0  0  0
    8.2250  -14.6710   12.1280 C   0  0  0  0  0  0  0  0  0  0  0  0
    7.2010  -13.8660   12.6740 N   0  0  0  0  0  0  0  0  0  0  0  0
    7.5990  -12.4660   12.8250 C   0  0  0  0  0  0  0  0  0  0  0  0
    5.9150  -14.0520   12.0020 C   0  0  0  0  0  0  0  0  0  0  0  0
    8.1860  -16.0560   12.3060 C   0  0  0  0  0  0  0  0  0  0  0  0
   10.0510  -18.9730   12.8100 C   0  0  0  0  0  0  0  0  0  0  0  0
   11.7027  -17.0570   15.0396 H   0  0  0  0  0  0  0  0  0  0  0  0
   12.6401  -17.1169   13.5085 H   0  0  0  0  0  0  0  0  0  0  0  0
   10.9597  -16.4823   13.5085 H   0  0  0  0  0  0  0  0  0  0  0  0
   12.4303  -19.8238   14.9900 H   0  0  0  0  0  0  0  0  0  0  0  0
   10.9950  -21.7830   14.0220 H   0  0  0  0  0  0  0  0  0  0  0  0
    7.4837  -21.0856   10.8959 H   0  0  0  0  0  0  0  0  0  0  0  0
    7.4935  -18.6632   10.5635 H   0  0  0  0  0  0  0  0  0  0  0  0
   11.0141  -16.8650   10.5900 H   0  0  0  0  0  0  0  0  0  0  0  0
   10.9780  -14.4213   10.3018 H   0  0  0  0  0  0  0  0  0  0  0  0
    7.6695  -12.2181   13.8944 H   0  0  0  0  0  0  0  0  0  0  0  0
    8.5773  -12.3093   12.3471 H   0  0  0  0  0  0  0  0  0  0  0  0
    6.8494  -11.8181   12.3471 H   0  0  0  0  0  0  0  0  0  0  0  0
    5.1212  -14.1668   12.7548 H   0  0  0  0  0  0  0  0  0  0  0  0
    5.6999  -13.1756   11.3730 H   0  0  0  0  0  0  0  0  0  0  0  0
    5.9570  -14.9534   11.3730 H   0  0  0  0  0  0  0  0  0  0  0  0
    7.3673  -16.5083   12.8849 H   0  0  0  0  0  0  0  0  0  0  0  0
  1  2  1  0
  2  3  2  0
  3  4  1  0
  4  5  1  0
  5  6  2  0
  6  7  1  0
  7  8  2  0
  8  9  1  0
  9 10  1  0
 10 11  2  0
 11 12  1  0
 12 13  2  0
 13 14  1  0
 14 15  1  0
 15 16  1  0
 15 17  1  0
 14 18  2  0
  9 19  2  0
 19  2  1  0
 19  5  1  0
 18 10  1  0
  1 20  1  0
  1 21  1  0
  1 22  1  0
  3 23  1  0
  4 24  1  0
  7 25  1  0
  8 26  1  0
 11 27  1  0
 12 28  1  0
 16 29  1  0
 16 30  1  0
 16 31  1  0
 17 32  1  0
 17 33  1  0
 17 34  1  0
 18 35  1  0
M  END
>  <meeko>  (20) 
{"is_sidechain": [false], "free_energy": -6.74, "intermolecular_energy": -7.672, "internal_energy": -0.417}

$$$$
