MODEL 1
REMARK VINA RESULT:    -8.001      0.000      0.000
REMARK INTER + INTRA:          -9.496
REMARK INTER:                  -8.936
REMARK INTRA:                  -0.560
REMARK UNBOUND:                -0.560
REMARK SMILES Cc1c[nH]c2nccc(-c3ccnc(N(C)C)c3)c12
REMARK SMILES IDX 10 1 11 2 12 3 13 4 14 5 18 6 9 7 2 8 3 9 19 10 4 11 5 12
REMARK SMILES IDX 8 13 6 14 7 15 1 16 15 18 16 19 17 20
REMARK H PARENT 4 17
ROOT
ATOM      1  C   UNL     1      10.816 -19.322  13.598  1.00  0.00    -0.012 A 
ATOM      2  C   UNL     1      12.073 -19.672  13.112  1.00  0.00     0.029 A 
ATOM      3  C   UNL     1      13.185 -19.201  13.779  1.00  0.00     0.114 A 
ATOM      4  N   UNL     1      13.130 -18.428  14.885  1.00  0.00    -0.239 NA
ATOM      5  C   UNL     1      11.919 -18.096  15.383  1.00  0.00     0.128 A 
ATOM      6  C   UNL     1      10.751 -18.526  14.749  1.00  0.00     0.055 A 
ENDROOT
BRANCH   1   7
ATOM      7  C   UNL     1       9.601 -19.777  12.930  1.00  0.00    -0.005 A 
ATOM      8  C   UNL     1       9.052 -17.617  11.484  1.00  0.00    -0.023 A 
ATOM      9  C   UNL     1       7.990 -17.412  10.620  1.00  0.00     0.088 A 
ATOM     10  C   UNL     1       8.904 -18.943  12.023  1.00  0.00     0.029 A 
ATOM     11  N   UNL     1       7.219 -18.542  10.609  1.00  0.00    -0.346 N 
ATOM     12  C   UNL     1       7.754 -19.478  11.446  1.00  0.00     0.138 A 
ATOM     13  C   UNL     1       9.078 -21.059  13.164  1.00  0.00     0.029 A 
ATOM     14  N   UNL     1       7.217 -20.697  11.641  1.00  0.00    -0.239 NA
ATOM     15  C   UNL     1       7.919 -21.450  12.511  1.00  0.00     0.114 A 
ATOM     16  C   UNL     1      10.127 -16.633  11.780  1.00  0.00     0.047 C 
ATOM     17  H   UNL     1       6.377 -18.691  10.072  1.00  0.00     0.167 HD
ENDBRANCH   1   7
BRANCH   5  18
ATOM     18  N   UNL     1      11.832 -17.276  16.529  1.00  0.00    -0.363 N 
ATOM     19  C   UNL     1      13.141 -16.932  17.083  1.00  0.00     0.144 C 
ATOM     20  C   UNL     1      10.944 -16.128  16.338  1.00  0.00     0.144 C 
ENDBRANCH   5  18
TORSDOF 2
ENDMDL
MODEL 2
REMARK VINA RESULT:    -7.804      1.424      5.714
REMARK INTER + INTRA:          -9.277
REMARK INTER:                  -8.716
REMARK INTRA:                  -0.561
REMARK UNBOUND:                -0.560
REMARK SMILES Cc1c[nH]c2nccc(-c3ccnc(N(C)C)c3)c12
REMARK SMILES IDX 10 1 11 2 12 3 13 4 14 5 18 6 9 7 2 8 3 9 19 10 4 11 5 12
REMARK SMILES IDX 8 13 6 14 7 15 1 16 15 18 16 19 17 20
REMARK H PARENT 4 17
ROOT
ATOM      1  C   UNL     1      10.243 -19.652  13.273  1.00  0.00    -0.012 A 
ATOM      2  C   UNL     1       9.071 -20.155  13.832  1.00  0.00     0.029 A 
ATOM      3  C   UNL     1       7.902 -20.043  13.108  1.00  0.00     0.114 A 
ATOM      4  N   UNL     1       7.825 -19.483  11.881  1.00  0.00    -0.239 NA
ATOM      5  C   UNL     1       8.956 -19.008  11.314  1.00  0.00     0.128 A 
ATOM      6  C   UNL     1      10.172 -19.076  11.998  1.00  0.00     0.055 A 
ENDROOT
BRANCH   1   7
ATOM      7  C   UNL     1      11.510 -19.728  13.994  1.00  0.00    -0.005 A 
ATOM      8  C   UNL     1      11.578 -17.284  15.032  1.00  0.00    -0.023 A 
ATOM      9  C   UNL     1      12.558 -16.720  15.833  1.00  0.00     0.088 A 
ATOM     10  C   UNL     1      12.004 -18.625  14.731  1.00  0.00     0.029 A 
ATOM     11  N   UNL     1      13.541 -17.651  16.031  1.00  0.00    -0.346 N 
ATOM     12  C   UNL     1      13.225 -18.807  15.377  1.00  0.00     0.138 A 
ATOM     13  C   UNL     1      12.286 -20.898  13.981  1.00  0.00     0.029 A 
ATOM     14  N   UNL     1      14.001 -19.907  15.392  1.00  0.00    -0.239 NA
ATOM     15  C   UNL     1      13.485 -20.926  14.676  1.00  0.00     0.114 A 
ATOM     16  C   UNL     1      10.334 -16.604  14.584  1.00  0.00     0.047 C 
ATOM     17  H   UNL     1      14.383 -17.530  16.574  1.00  0.00     0.167 HD
ENDBRANCH   1   7
BRANCH   5  18
ATOM     18  N   UNL     1       8.902 -18.404  10.040  1.00  0.00    -0.363 N 
ATOM     19  C   UNL     1       7.604 -18.570   9.386  1.00  0.00     0.144 C 
ATOM     20  C   UNL     1       9.397 -17.026  10.045  1.00  0.00     0.144 C 
ENDBRANCH   5  18
TORSDOF 2
ENDMDL
MODEL 3
REMARK VINA RESULT:    -7.738      1.970      5.976
REMARK INTER + INTRA:          -9.203
REMARK INTER:                  -8.891
REMARK INTRA:                  -0.312
REMARK UNBOUND:                -0.560
REMARK SMILES Cc1c[nH]c2nccc(-c3ccnc(N(C)C)c3)c12
REMARK SMILES IDX 10 1 11 2 12 3 13 4 14 5 18 6 9 7 2 8 3 9 19 10 4 11 5 12
REMARK SMILES IDX 8 13 6 14 7 15 1 16 15 18 16 19 17 20
REMARK H PARENT 4 17
ROOT
ATOM      1  C   UNL     1      11.499 -18.804  13.886  1.00  0.00    -0.012 A 
ATOM      2  C   UNL     1      11.728 -17.606  13.215  1.00  0.00     0.029 A 
ATOM      3  C   UNL     1      10.661 -16.989  12.595  1.00  0.00     0.114 A 
ATOM      4  N   UNL     1       9.398 -17.471  12.611  1.00  0.00    -0.239 NA
ATOM      5  C   UNL     1       9.153 -18.622  13.275  1.00  0.00     0.128 A 
ATOM      6  C   UNL     1      10.191 -19.307  13.912  1.00  0.00     0.055 A 
ENDROOT
BRANCH   1   7
ATOM      7  C   UNL     1      12.588 -19.512  14.550  1.00  0.00    -0.005 A 
ATOM      8  C   UNL     1      13.094 -17.804  16.520  1.00  0.00    -0.023 A 
ATOM      9  C   UNL     1      14.051 -17.903  17.516  1.00  0.00     0.088 A 
ATOM     10  C   UNL     1      13.220 -18.978  15.699  1.00  0.00     0.029 A 
ATOM     11  N   UNL     1      14.738 -19.072  17.338  1.00  0.00    -0.346 N 
ATOM     12  C   UNL     1      14.251 -19.737  16.249  1.00  0.00     0.138 A 
ATOM     13  C   UNL     1      13.050 -20.749  14.073  1.00  0.00     0.029 A 
ATOM     14  N   UNL     1      14.726 -20.923  15.827  1.00  0.00    -0.239 NA
ATOM     15  C   UNL     1      14.090 -21.387  14.732  1.00  0.00     0.114 A 
ATOM     16  C   UNL     1      12.132 -16.681  16.357  1.00  0.00     0.047 C 
ATOM     17  H   UNL     1      15.495 -19.419  17.909  1.00  0.00     0.167 HD
ENDBRANCH   1   7
BRANCH   5  18
ATOM     18  N   UNL     1       7.847 -19.157  13.294  1.00  0.00    -0.363 N 
ATOM     19  C   UNL     1       6.812 -18.135  13.132  1.00  0.00     0.144 C 
ATOM     20  C   UNL     1       7.694 -20.308  12.404  1.00  0.00     0.144 C 
ENDBRANCH   5  18
TORSDOF 2
ENDMDL
MODEL 4
REMARK VINA RESULT:    -7.695      2.826      5.704
REMARK INTER + INTRA:          -9.155
REMARK INTER:                  -8.623
REMARK INTRA:                  -0.532
REMARK UNBOUND:                -0.560
REMARK SMILES Cc1c[nH]c2nccc(-c3ccnc(N(C)C)c3)c12
REMARK SMILES IDX 10 1 11 2 12 3 13 4 14 5 18 6 9 7 2 8 3 9 19 10 4 11 5 12
REMARK SMILES IDX 8 13 6 14 7 15 1 16 15 18 16 19 17 20
REMARK H PARENT 4 17
ROOT
ATOM      1  C   UNL     1      10.696 -17.877  14.310  1.00  0.00    -0.012 A 
ATOM      2  C   UNL     1       9.594 -17.836  15.159  1.00  0.00     0.029 A 
ATOM      3  C   UNL     1       8.630 -16.876  14.932  1.00  0.00     0.114 A 
ATOM      4  N   UNL     1       8.683 -15.977  13.924  1.00  0.00    -0.239 NA
ATOM      5  C   UNL     1       9.735 -16.015  13.078  1.00  0.00     0.128 A 
ATOM      6  C   UNL     1      10.756 -16.952  13.259  1.00  0.00     0.055 A 
ENDROOT
BRANCH   1   7
ATOM      7  C   UNL     1      11.757 -18.860  14.505  1.00  0.00    -0.005 A 
ATOM      8  C   UNL     1      13.121 -17.663  16.445  1.00  0.00    -0.023 A 
ATOM      9  C   UNL     1      14.273 -18.100  17.078  1.00  0.00     0.088 A 
ATOM     10  C   UNL     1      12.775 -18.662  15.469  1.00  0.00     0.029 A 
ATOM     11  N   UNL     1      14.631 -19.304  16.538  1.00  0.00    -0.346 N 
ATOM     12  C   UNL     1      13.739 -19.663  15.568  1.00  0.00     0.138 A 
ATOM     13  C   UNL     1      11.808 -20.038  13.743  1.00  0.00     0.029 A 
ATOM     14  N   UNL     1      13.828 -20.804  14.860  1.00  0.00    -0.239 NA
ATOM     15  C   UNL     1      12.835 -20.943  13.958  1.00  0.00     0.114 A 
ATOM     16  C   UNL     1      12.402 -16.395  16.740  1.00  0.00     0.047 C 
ATOM     17  H   UNL     1      15.428 -19.867  16.797  1.00  0.00     0.167 HD
ENDBRANCH   1   7
BRANCH   5  18
ATOM     18  N   UNL     1       9.825 -15.077  12.027  1.00  0.00    -0.363 N 
ATOM     19  C   UNL     1      10.059 -15.702  10.725  1.00  0.00     0.144 C 
ATOM     20  C   UNL     1       8.727 -14.110  12.036  1.00  0.00     0.144 C 
ENDBRANCH   5  18
TORSDOF 2
ENDMDL
MODEL 5
REMARK VINA RESULT:    -7.630      1.610      6.229
REMARK INTER + INTRA:          -9.082
REMARK INTER:                  -8.779
REMARK INTRA:                  -0.304
REMARK UNBOUND:                -0.560
REMARK SMILES Cc1c[nH]c2nccc(-c3ccnc(N(C)C)c3)c12
REMARK SMILES IDX 10 1 11 2 12 3 13 4 14 5 18 6 9 7 2 8 3 9 19 10 4 11 5 12
REMARK SMILES IDX 8 13 6 14 7 15 1 16 15 18 16 19 17 20
REMARK H PARENT 4 17
ROOT
ATOM      1  C   UNL     1      11.159 -17.864  14.158  1.00  0.00    -0.012 A 
ATOM      2  C   UNL     1      11.237 -16.914  13.143  1.00  0.00     0.029 A 
ATOM      3  C   UNL     1      10.316 -16.976  12.118  1.00  0.00     0.114 A 
ATOM      4  N   UNL     1       9.332 -17.899  12.043  1.00  0.00    -0.239 NA
ATOM      5  C   UNL     1       9.228 -18.816  13.030  1.00  0.00     0.128 A 
ATOM      6  C   UNL     1      10.137 -18.819  14.091  1.00  0.00     0.055 A 
ENDROOT
BRANCH   1   7
ATOM      7  C   UNL     1      12.111 -17.860  15.264  1.00  0.00    -0.005 A 
ATOM      8  C   UNL     1      13.358 -20.156  14.785  1.00  0.00    -0.023 A 
ATOM      9  C   UNL     1      14.389 -20.738  15.505  1.00  0.00     0.088 A 
ATOM     10  C   UNL     1      13.030 -18.921  15.447  1.00  0.00     0.029 A 
ATOM     11  N   UNL     1      14.697 -19.918  16.555  1.00  0.00    -0.346 N 
ATOM     12  C   UNL     1      13.891 -18.815  16.537  1.00  0.00     0.138 A 
ATOM     13  C   UNL     1      12.151 -16.803  16.187  1.00  0.00     0.029 A 
ATOM     14  N   UNL     1      13.963 -17.825  17.446  1.00  0.00    -0.239 NA
ATOM     15  C   UNL     1      13.069 -16.841  17.225  1.00  0.00     0.114 A 
ATOM     16  C   UNL     1      12.730 -20.726  13.563  1.00  0.00     0.047 C 
ATOM     17  H   UNL     1      15.408 -20.076  17.254  1.00  0.00     0.167 HD
ENDBRANCH   1   7
BRANCH   5  18
ATOM     18  N   UNL     1       8.219 -19.801  12.969  1.00  0.00    -0.363 N 
ATOM     19  C   UNL     1       7.558 -19.858  11.665  1.00  0.00     0.144 C 
ATOM     20  C   UNL     1       8.666 -21.101  13.469  1.00  0.00     0.144 C 
ENDBRANCH   5  18
TORSDOF 2
ENDMDL
MODEL 6
REMARK VINA RESULT:    -7.577      2.006      5.943
REMARK INTER + INTRA:          -9.023
REMARK INTER:                  -8.430
REMARK INTRA:                  -0.594
REMARK UNBOUND:                -0.560
REMARK SMILES Cc1c[nH]c2nccc(-c3ccnc(N(C)C)c3)c12
REMARK SMILES IDX 10 1 11 2 12 3 13 4 14 5 18 6 9 7 2 8 3 9 19 10 4 11 5 12
REMARK SMILES IDX 8 13 6 14 7 15 1 16 15 18 16 19 17 20
REMARK H PARENT 4 17
ROOT
ATOM      1  C   UNL     1      10.293 -17.698  14.349  1.00  0.00    -0.012 A 
ATOM      2  C   UNL     1       9.081 -18.168  14.846  1.00  0.00     0.029 A 
ATOM      3  C   UNL     1       7.947 -17.988  14.080  1.00  0.00     0.114 A 
ATOM      4  N   UNL     1       7.943 -17.392  12.867  1.00  0.00    -0.239 NA
ATOM      5  C   UNL     1       9.114 -16.948  12.360  1.00  0.00     0.128 A 
ATOM      6  C   UNL     1      10.298 -17.085  13.090  1.00  0.00     0.055 A 
ENDROOT
BRANCH   1   7
ATOM      7  C   UNL     1      11.526 -17.846  15.117  1.00  0.00    -0.005 A 
ATOM      8  C   UNL     1      12.307 -20.231  14.247  1.00  0.00    -0.023 A 
ATOM      9  C   UNL     1      13.433 -20.950  14.614  1.00  0.00     0.088 A 
ATOM     10  C   UNL     1      12.332 -19.003  14.997  1.00  0.00     0.029 A 
ATOM     11  N   UNL     1      14.130 -20.219  15.536  1.00  0.00    -0.346 N 
ATOM     12  C   UNL     1      13.485 -19.040  15.779  1.00  0.00     0.138 A 
ATOM     13  C   UNL     1      11.956 -16.846  16.003  1.00  0.00     0.029 A 
ATOM     14  N   UNL     1      13.935 -18.109  16.640  1.00  0.00    -0.239 NA
ATOM     15  C   UNL     1      13.132 -17.028  16.715  1.00  0.00     0.114 A 
ATOM     16  C   UNL     1      11.284 -20.673  13.263  1.00  0.00     0.047 C 
ATOM     17  H   UNL     1      14.994 -20.483  15.985  1.00  0.00     0.167 HD
ENDBRANCH   1   7
BRANCH   5  18
ATOM     18  N   UNL     1       9.137 -16.307  11.103  1.00  0.00    -0.363 N 
ATOM     19  C   UNL     1      10.201 -15.310  10.992  1.00  0.00     0.144 C 
ATOM     20  C   UNL     1       9.084 -17.250   9.985  1.00  0.00     0.144 C 
ENDBRANCH   5  18
TORSDOF 2
ENDMDL
MODEL 7
REMARK VINA RESULT:    -7.570      0.967      2.520
REMARK INTER + INTRA:          -9.015
REMARK INTER:                  -8.583
REMARK INTRA:                  -0.432
REMARK UNBOUND:                -0.560
REMARK SMILES Cc1c[nH]c2nccc(-c3ccnc(N(C)C)c3)c12
REMARK SMILES IDX 10 1 11 2 12 3 13 4 14 5 18 6 9 7 2 8 3 9 19 10 4 11 5 12
REMARK SMILES IDX 8 13 6 14 7 15 1 16 15 18 16 19 17 20
REMARK H PARENT 4 17
ROOT
ATOM      1  C   UNL     1      11.270 -18.316  13.468  1.00  0.00    -0.012 A 
ATOM      2  C   UNL     1      12.246 -19.236  13.094  1.00  0.00     0.029 A 
ATOM      3  C   UNL     1      13.286 -19.475  13.968  1.00  0.00     0.114 A 
ATOM      4  N   UNL     1      13.411 -18.879  15.174  1.00  0.00    -0.239 NA
ATOM      5  C   UNL     1      12.462 -17.998  15.562  1.00  0.00     0.128 A 
ATOM      6  C   UNL     1      11.389 -17.698  14.719  1.00  0.00     0.055 A 
ENDROOT
BRANCH   1   7
ATOM      7  C   UNL     1      10.151 -18.008  12.582  1.00  0.00    -0.005 A 
ATOM      8  C   UNL     1       8.735 -20.238  12.866  1.00  0.00    -0.023 A 
ATOM      9  C   UNL     1       7.534 -20.573  12.262  1.00  0.00     0.088 A 
ATOM     10  C   UNL     1       9.093 -18.928  12.389  1.00  0.00     0.029 A 
ATOM     11  N   UNL     1       7.154 -19.536  11.455  1.00  0.00    -0.346 N 
ATOM     12  C   UNL     1       8.078 -18.533  11.519  1.00  0.00     0.138 A 
ATOM     13  C   UNL     1      10.084 -16.789  11.889  1.00  0.00     0.029 A 
ATOM     14  N   UNL     1       7.973 -17.379  10.835  1.00  0.00    -0.239 NA
ATOM     15  C   UNL     1       9.005 -16.539  11.056  1.00  0.00     0.114 A 
ATOM     16  C   UNL     1       9.488 -21.092  13.823  1.00  0.00     0.047 C 
ATOM     17  H   UNL     1       6.320 -19.490  10.888  1.00  0.00     0.167 HD
ENDBRANCH   1   7
BRANCH   5  18
ATOM     18  N   UNL     1      12.576 -17.348  16.810  1.00  0.00    -0.363 N 
ATOM     19  C   UNL     1      13.786 -17.726  17.539  1.00  0.00     0.144 C 
ATOM     20  C   UNL     1      12.360 -15.904  16.718  1.00  0.00     0.144 C 
ENDBRANCH   5  18
TORSDOF 2
ENDMDL
MODEL 8
REMARK VINA RESULT:    -7.517      0.972      2.038
REMARK INTER + INTRA:          -8.957
REMARK INTER:                  -8.386
REMARK INTRA:                  -0.571
REMARK UNBOUND:                -0.560
REMARK SMILES Cc1c[nH]c2nccc(-c3ccnc(N(C)C)c3)c12
REMARK SMILES IDX 10 1 11 2 12 3 13 4 14 5 18 6 9 7 2 8 3 9 19 10 4 11 5 12
REMARK SMILES IDX 8 13 6 14 7 15 1 16 15 18 16 19 17 20
REMARK H PARENT 4 17
ROOT
ATOM      1  C   UNL     1       9.896 -18.346  14.093  1.00  0.00    -0.012 A 
ATOM      2  C   UNL     1       9.331 -17.353  14.888  1.00  0.00     0.029 A 
ATOM      3  C   UNL     1      10.126 -16.747  15.840  1.00  0.00     0.114 A 
ATOM      4  N   UNL     1      11.427 -17.051  16.040  1.00  0.00    -0.239 NA
ATOM      5  C   UNL     1      11.998 -17.997  15.263  1.00  0.00     0.128 A 
ATOM      6  C   UNL     1      11.247 -18.662  14.290  1.00  0.00     0.055 A 
ENDROOT
BRANCH   1   7
ATOM      7  C   UNL     1       9.105 -19.034  13.078  1.00  0.00    -0.005 A 
ATOM      8  C   UNL     1       9.313 -17.283  11.091  1.00  0.00    -0.023 A 
ATOM      9  C   UNL     1       8.760 -17.356   9.823  1.00  0.00     0.088 A 
ATOM     10  C   UNL     1       8.910 -18.473  11.792  1.00  0.00     0.029 A 
ATOM     11  N   UNL     1       8.055 -18.524   9.727  1.00  0.00    -0.346 N 
ATOM     12  C   UNL     1       8.135 -19.214  10.903  1.00  0.00     0.138 A 
ATOM     13  C   UNL     1       8.508 -20.277  13.339  1.00  0.00     0.029 A 
ATOM     14  N   UNL     1       7.544 -20.405  11.109  1.00  0.00    -0.239 NA
ATOM     15  C   UNL     1       7.762 -20.895  12.347  1.00  0.00     0.114 A 
ATOM     16  C   UNL     1      10.157 -16.170  11.601  1.00  0.00     0.047 C 
ATOM     17  H   UNL     1       7.544 -18.855   8.922  1.00  0.00     0.167 HD
ENDBRANCH   1   7
BRANCH   5  18
ATOM     18  N   UNL     1      13.352 -18.346  15.461  1.00  0.00    -0.363 N 
ATOM     19  C   UNL     1      13.874 -17.889  16.749  1.00  0.00     0.144 C 
ATOM     20  C   UNL     1      13.622 -19.755  15.173  1.00  0.00     0.144 C 
ENDBRANCH   5  18
TORSDOF 2
ENDMDL
MODEL 9
REMARK VINA RESULT:    -7.423      1.450      2.287
REMARK INTER + INTRA:          -8.851
REMARK INTER:                  -8.391
REMARK INTRA:                  -0.460
REMARK UNBOUND:                -0.560
REMARK SMILES Cc1c[nH]c2nccc(-c3ccnc(N(C)C)c3)c12
REMARK SMILES IDX 10 1 11 2 12 3 13 4 14 5 18 6 9 7 2 8 3 9 19 10 4 11 5 12
REMARK SMILES IDX 8 13 6 14 7 15 1 16 15 18 16 19 17 20
REMARK H PARENT 4 17
ROOT
ATOM      1  C   UNL     1       9.832 -17.827  14.508  1.00  0.00    -0.012 A 
ATOM      2  C   UNL     1       8.951 -16.803  14.844  1.00  0.00     0.029 A 
ATOM      3  C   UNL     1       9.385 -15.829  15.720  1.00  0.00     0.114 A 
ATOM      4  N   UNL     1      10.621 -15.801  16.264  1.00  0.00    -0.239 NA
ATOM      5  C   UNL     1      11.496 -16.775  15.933  1.00  0.00     0.128 A 
ATOM      6  C   UNL     1      11.118 -17.801  15.063  1.00  0.00     0.055 A 
ENDROOT
BRANCH   1   7
ATOM      7  C   UNL     1       9.429 -18.894  13.597  1.00  0.00    -0.005 A 
ATOM      8  C   UNL     1       9.505 -17.567  11.297  1.00  0.00    -0.023 A 
ATOM      9  C   UNL     1       9.212 -18.037  10.027  1.00  0.00     0.088 A 
ATOM     10  C   UNL     1       9.314 -18.668  12.205  1.00  0.00     0.029 A 
ATOM     11  N   UNL     1       8.861 -19.355  10.126  1.00  0.00    -0.346 N 
ATOM     12  C   UNL     1       8.919 -19.756  11.430  1.00  0.00     0.138 A 
ATOM     13  C   UNL     1       9.141 -20.184  14.070  1.00  0.00     0.029 A 
ATOM     14  N   UNL     1       8.632 -21.006  11.838  1.00  0.00    -0.239 NA
ATOM     15  C   UNL     1       8.758 -21.168  13.170  1.00  0.00     0.114 A 
ATOM     16  C   UNL     1       9.933 -16.182  11.628  1.00  0.00     0.047 C 
ATOM     17  H   UNL     1       8.596 -19.966   9.366  1.00  0.00     0.167 HD
ENDBRANCH   1   7
BRANCH   5  18
ATOM     18  N   UNL     1      12.789 -16.779  16.499  1.00  0.00    -0.363 N 
ATOM     19  C   UNL     1      12.780 -16.520  17.939  1.00  0.00     0.144 C 
ATOM     20  C   UNL     1      13.576 -17.949  16.108  1.00  0.00     0.144 C 
ENDBRANCH   5  18
TORSDOF 2
ENDMDL
MODEL 10
REMARK VINA RESULT:    -7.411      1.391      5.930
REMARK INTER + INTRA:          -8.838
REMARK INTER:                  -8.309
REMARK INTRA:                  -0.528
REMARK UNBOUND:                -0.560
REMARK SMILES Cc1c[nH]c2nccc(-c3ccnc(N(C)C)c3)c12
REMARK SMILES IDX 10 1 11 2 12 3 13 4 14 5 18 6 9 7 2 8 3 9 19 10 4 11 5 12
REMARK SMILES IDX 8 13 6 14 7 15 1 16 15 18 16 19 17 20
REMARK H PARENT 4 17
ROOT
ATOM      1  C   UNL     1       9.512 -19.091  13.602  1.00  0.00    -0.012 A 
ATOM      2  C   UNL     1       9.238 -20.360  14.104  1.00  0.00     0.029 A 
ATOM      3  C   UNL     1       8.791 -21.327  13.227  1.00  0.00     0.114 A 
ATOM      4  N   UNL     1       8.614 -21.121  11.903  1.00  0.00    -0.239 NA
ATOM      5  C   UNL     1       8.895 -19.901  11.395  1.00  0.00     0.128 A 
ATOM      6  C   UNL     1       9.337 -18.871  12.229  1.00  0.00     0.055 A 
ENDROOT
BRANCH   1   7
ATOM      7  C   UNL     1       9.975 -18.021  14.480  1.00  0.00    -0.005 A 
ATOM      8  C   UNL     1      12.535 -18.696  14.691  1.00  0.00    -0.023 A 
ATOM      9  C   UNL     1      13.532 -18.062  15.415  1.00  0.00     0.088 A 
ATOM     10  C   UNL     1      11.325 -17.947  14.900  1.00  0.00     0.029 A 
ATOM     11  N   UNL     1      12.985 -16.975  16.040  1.00  0.00    -0.346 N 
ATOM     12  C   UNL     1      11.656 -16.886  15.740  1.00  0.00     0.138 A 
ATOM     13  C   UNL     1       9.098 -17.027  14.941  1.00  0.00     0.029 A 
ATOM     14  N   UNL     1      10.851 -15.914  16.207  1.00  0.00    -0.239 NA
ATOM     15  C   UNL     1       9.578 -16.031  15.777  1.00  0.00     0.114 A 
ATOM     16  C   UNL     1      12.715 -19.919  13.864  1.00  0.00     0.047 C 
ATOM     17  H   UNL     1      13.467 -16.319  16.637  1.00  0.00     0.167 HD
ENDBRANCH   1   7
BRANCH   5  18
ATOM     18  N   UNL     1       8.703 -19.653  10.018  1.00  0.00    -0.363 N 
ATOM     19  C   UNL     1       7.894 -20.681   9.363  1.00  0.00     0.144 C 
ATOM     20  C   UNL     1       8.265 -18.284   9.745  1.00  0.00     0.144 C 
ENDBRANCH   5  18
TORSDOF 2
ENDMDL
MODEL 11
REMARK VINA RESULT:    -7.392      2.122      5.721
REMARK INTER + INTRA:          -8.817
REMARK INTER:                  -8.265
REMARK INTRA:                  -0.552
REMARK UNBOUND:                -0.560
REMARK SMILES Cc1c[nH]c2nccc(-c3ccnc(N(C)C)c3)c12
REMARK SMILES IDX 10 1 11 2 12 3 13 4 14 5 18 6 9 7 2 8 3 9 19 10 4 11 5 12
REMARK SMILES IDX 8 13 6 14 7 15 1 16 15 18 16 19 17 20
REMARK H PARENT 4 17
ROOT
ATOM      1  C   UNL     1      10.661 -16.785  13.494  1.00  0.00    -0.012 A 
ATOM      2  C   UNL     1      10.998 -16.057  12.356  1.00  0.00     0.029 A 
ATOM      3  C   UNL     1       9.976 -15.588  11.555  1.00  0.00     0.114 A 
ATOM      4  N   UNL     1       8.664 -15.782  11.815  1.00  0.00    -0.239 NA
ATOM      5  C   UNL     1       8.319 -16.468  12.927  1.00  0.00     0.128 A 
ATOM      6  C   UNL     1       9.303 -16.985  13.773  1.00  0.00     0.055 A 
ENDROOT
BRANCH   1   7
ATOM      7  C   UNL     1      11.695 -17.320  14.374  1.00  0.00    -0.005 A 
ATOM      8  C   UNL     1      11.804 -19.815  13.468  1.00  0.00    -0.023 A 
ATOM      9  C   UNL     1      12.608 -20.853  13.910  1.00  0.00     0.088 A 
ATOM     10  C   UNL     1      12.118 -18.668  14.278  1.00  0.00     0.029 A 
ATOM     11  N   UNL     1      13.386 -20.389  14.934  1.00  0.00    -0.346 N 
ATOM     12  C   UNL     1      13.109 -19.073  15.170  1.00  0.00     0.138 A 
ATOM     13  C   UNL     1      12.309 -16.517  15.349  1.00  0.00     0.029 A 
ATOM     14  N   UNL     1      13.722 -18.341  16.118  1.00  0.00    -0.239 NA
ATOM     15  C   UNL     1      13.284 -17.066  16.167  1.00  0.00     0.114 A 
ATOM     16  C   UNL     1      10.812 -19.901  12.363  1.00  0.00     0.047 C 
ATOM     17  H   UNL     1      14.072 -20.915  15.455  1.00  0.00     0.167 HD
ENDBRANCH   1   7
BRANCH   5  18
ATOM     18  N   UNL     1       6.957 -16.699  13.214  1.00  0.00    -0.363 N 
ATOM     19  C   UNL     1       6.076 -15.670  12.661  1.00  0.00     0.144 C 
ATOM     20  C   UNL     1       6.538 -18.069  12.912  1.00  0.00     0.144 C 
ENDBRANCH   5  18
TORSDOF 2
ENDMDL
MODEL 12
REMARK VINA RESULT:    -7.391      1.261      3.180
REMARK INTER + INTRA:          -8.815
REMARK INTER:                  -8.243
REMARK INTRA:                  -0.572
REMARK UNBOUND:                -0.560
REMARK SMILES Cc1c[nH]c2nccc(-c3ccnc(N(C)C)c3)c12
REMARK SMILES IDX 10 1 11 2 12 3 13 4 14 5 18 6 9 7 2 8 3 9 19 10 4 11 5 12
REMARK SMILES IDX 8 13 6 14 7 15 1 16 15 18 16 19 17 20
REMARK H PARENT 4 17
ROOT
ATOM      1  C   UNL     1       9.937 -17.960  13.389  1.00  0.00    -0.012 A 
ATOM      2  C   UNL     1       9.124 -17.566  14.448  1.00  0.00     0.029 A 
ATOM      3  C   UNL     1       9.697 -17.432  15.696  1.00  0.00     0.114 A 
ATOM      4  N   UNL     1      11.006 -17.648  15.953  1.00  0.00    -0.239 NA
ATOM      5  C   UNL     1      11.813 -18.011  14.933  1.00  0.00     0.128 A 
ATOM      6  C   UNL     1      11.296 -18.180  13.646  1.00  0.00     0.055 A 
ENDROOT
BRANCH   1   7
ATOM      7  C   UNL     1       9.389 -18.133  12.047  1.00  0.00    -0.005 A 
ATOM      8  C   UNL     1       8.943 -20.751  12.083  1.00  0.00    -0.023 A 
ATOM      9  C   UNL     1       8.423 -21.546  11.075  1.00  0.00     0.088 A 
ATOM     10  C   UNL     1       8.988 -19.406  11.575  1.00  0.00     0.029 A 
ATOM     11  N   UNL     1       8.151 -20.750   9.996  1.00  0.00    -0.346 N 
ATOM     12  C   UNL     1       8.482 -19.456  10.278  1.00  0.00     0.138 A 
ATOM     13  C   UNL     1       9.240 -17.043  11.176  1.00  0.00     0.029 A 
ATOM     14  N   UNL     1       8.322 -18.440   9.409  1.00  0.00    -0.239 NA
ATOM     15  C   UNL     1       8.718 -17.252   9.908  1.00  0.00     0.114 A 
ATOM     16  C   UNL     1       9.366 -21.229  13.427  1.00  0.00     0.047 C 
ATOM     17  H   UNL     1       7.764 -21.046   9.112  1.00  0.00     0.167 HD
ENDBRANCH   1   7
BRANCH   5  18
ATOM     18  N   UNL     1      13.182 -18.260  15.175  1.00  0.00    -0.363 N 
ATOM     19  C   UNL     1      13.653 -17.670  16.428  1.00  0.00     0.144 C 
ATOM     20  C   UNL     1      13.540 -19.668  15.006  1.00  0.00     0.144 C 
ENDBRANCH   5  18
TORSDOF 2
ENDMDL
MODEL 13
REMARK VINA RESULT:    -7.330      3.031      4.777
REMARK INTER + INTRA:          -8.747
REMARK INTER:                  -8.210
REMARK INTRA:                  -0.537
REMARK UNBOUND:                -0.560
REMARK SMILES Cc1c[nH]c2nccc(-c3ccnc(N(C)C)c3)c12
REMARK SMILES IDX 10 1 11 2 12 3 13 4 14 5 18 6 9 7 2 8 3 9 19 10 4 11 5 12
REMARK SMILES IDX 8 13 6 14 7 15 1 16 15 18 16 19 17 20
REMARK H PARENT 4 17
ROOT
ATOM      1  C   UNL     1       8.691 -17.421  11.431  1.00  0.00    -0.012 A 
ATOM      2  C   UNL     1       9.984 -16.930  11.591  1.00  0.00     0.029 A 
ATOM      3  C   UNL     1      10.139 -15.617  11.987  1.00  0.00     0.114 A 
ATOM      4  N   UNL     1       9.111 -14.779  12.241  1.00  0.00    -0.239 NA
ATOM      5  C   UNL     1       7.849 -15.244  12.110  1.00  0.00     0.128 A 
ATOM      6  C   UNL     1       7.619 -16.559  11.698  1.00  0.00     0.055 A 
ENDROOT
BRANCH   1   7
ATOM      7  C   UNL     1       8.459 -18.796  11.002  1.00  0.00    -0.005 A 
ATOM      8  C   UNL     1       8.827 -20.051  13.314  1.00  0.00    -0.023 A 
ATOM      9  C   UNL     1       8.752 -21.409  13.573  1.00  0.00     0.088 A 
ATOM     10  C   UNL     1       8.549 -19.876  11.914  1.00  0.00     0.029 A 
ATOM     11  N   UNL     1       8.442 -22.054  12.408  1.00  0.00    -0.346 N 
ATOM     12  C   UNL     1       8.312 -21.147  11.395  1.00  0.00     0.138 A 
ATOM     13  C   UNL     1       8.139 -19.100   9.669  1.00  0.00     0.029 A 
ATOM     14  N   UNL     1       8.005 -21.484  10.129  1.00  0.00    -0.239 NA
ATOM     15  C   UNL     1       7.931 -20.421   9.303  1.00  0.00     0.114 A 
ATOM     16  C   UNL     1       9.138 -18.997  14.316  1.00  0.00     0.047 C 
ATOM     17  H   UNL     1       8.319 -23.048  12.284  1.00  0.00     0.167 HD
ENDBRANCH   1   7
BRANCH   5  18
ATOM     18  N   UNL     1       6.755 -14.385  12.353  1.00  0.00    -0.363 N 
ATOM     19  C   UNL     1       7.127 -12.971  12.328  1.00  0.00     0.144 C 
ATOM     20  C   UNL     1       5.587 -14.710  11.534  1.00  0.00     0.144 C 
ENDBRANCH   5  18
TORSDOF 2
ENDMDL
MODEL 14
REMARK VINA RESULT:    -7.043      3.862      5.638
REMARK INTER + INTRA:          -8.427
REMARK INTER:                  -7.834
REMARK INTRA:                  -0.594
REMARK UNBOUND:                -0.560
REMARK SMILES Cc1c[nH]c2nccc(-c3ccnc(N(C)C)c3)c12
REMARK SMILES IDX 10 1 11 2 12 3 13 4 14 5 18 6 9 7 2 8 3 9 19 10 4 11 5 12
REMARK SMILES IDX 8 13 6 14 7 15 1 16 15 18 16 19 17 20
REMARK H PARENT 4 17
ROOT
ATOM      1  C   UNL     1       8.723 -14.862  12.776  1.00  0.00    -0.012 A 
ATOM      2  C   UNL     1       9.693 -15.084  11.802  1.00  0.00     0.029 A 
ATOM      3  C   UNL     1      10.613 -16.090  12.015  1.00  0.00     0.114 A 
ATOM      4  N   UNL     1      10.624 -16.884  13.109  1.00  0.00    -0.239 NA
ATOM      5  C   UNL     1       9.677 -16.695  14.054  1.00  0.00     0.128 A 
ATOM      6  C   UNL     1       8.724 -15.685  13.910  1.00  0.00     0.055 A 
ENDROOT
BRANCH   1   7
ATOM      7  C   UNL     1       7.730 -13.805  12.616  1.00  0.00    -0.005 A 
ATOM      8  C   UNL     1       5.841 -15.160  11.330  1.00  0.00    -0.023 A 
ATOM      9  C   UNL     1       4.616 -14.701  10.877  1.00  0.00     0.088 A 
ATOM     10  C   UNL     1       6.498 -14.046  11.960  1.00  0.00     0.029 A 
ATOM     11  N   UNL     1       4.502 -13.378  11.205  1.00  0.00    -0.346 N 
ATOM     12  C   UNL     1       5.626 -12.964  11.861  1.00  0.00     0.138 A 
ATOM     13  C   UNL     1       7.959 -12.509  13.107  1.00  0.00     0.029 A 
ATOM     14  N   UNL     1       5.804 -11.709  12.314  1.00  0.00    -0.239 NA
ATOM     15  C   UNL     1       6.990 -11.534  12.931  1.00  0.00     0.114 A 
ATOM     16  C   UNL     1       6.354 -16.548  11.177  1.00  0.00     0.047 C 
ATOM     17  H   UNL     1       3.718 -12.774  11.007  1.00  0.00     0.167 HD
ENDBRANCH   1   7
BRANCH   5  18
ATOM     18  N   UNL     1       9.674 -17.499  15.215  1.00  0.00    -0.363 N 
ATOM     19  C   UNL     1       8.325 -17.832  15.673  1.00  0.00     0.144 C 
ATOM     20  C   UNL     1      10.570 -18.652  15.108  1.00  0.00     0.144 C 
ENDBRANCH   5  18
TORSDOF 2
ENDMDL
MODEL 15
REMARK VINA RESULT:    -6.941      1.769      5.380
REMARK INTER + INTRA:          -8.313
REMARK INTER:                  -7.830
REMARK INTRA:                  -0.483
REMARK UNBOUND:                -0.560
REMARK SMILES Cc1c[nH]c2nccc(-c3ccnc(N(C)C)c3)c12
REMARK SMILES IDX 10 1 11 2 12 3 13 4 14 5 18 6 9 7 2 8 3 9 19 10 4 11 5 12
REMARK SMILES IDX 8 13 6 14 7 15 1 16 15 18 16 19 17 20
REMARK H PARENT 4 17
ROOT
ATOM      1  C   UNL     1       8.969 -18.887  11.854  1.00  0.00    -0.012 A 
ATOM      2  C   UNL     1       9.028 -19.111  10.481  1.00  0.00     0.029 A 
ATOM      3  C   UNL     1       7.962 -18.703   9.707  1.00  0.00     0.114 A 
ATOM      4  N   UNL     1       6.864 -18.087  10.198  1.00  0.00    -0.239 NA
ATOM      5  C   UNL     1       6.799 -17.843  11.525  1.00  0.00     0.128 A 
ATOM      6  C   UNL     1       7.838 -18.242  12.370  1.00  0.00     0.055 A 
ENDROOT
BRANCH   1   7
ATOM      7  C   UNL     1      10.059 -19.306  12.730  1.00  0.00    -0.005 A 
ATOM      8  C   UNL     1      11.224 -16.955  13.145  1.00  0.00    -0.023 A 
ATOM      9  C   UNL     1      12.348 -16.679  13.906  1.00  0.00     0.088 A 
ATOM     10  C   UNL     1      10.996 -18.373  13.236  1.00  0.00     0.029 A 
ATOM     11  N   UNL     1      12.800 -17.850  14.449  1.00  0.00    -0.346 N 
ATOM     12  C   UNL     1      11.997 -18.884  14.060  1.00  0.00     0.138 A 
ATOM     13  C   UNL     1      10.219 -20.650  13.101  1.00  0.00     0.029 A 
ATOM     14  N   UNL     1      12.189 -20.160  14.441  1.00  0.00    -0.239 NA
ATOM     15  C   UNL     1      11.270 -21.006  13.932  1.00  0.00     0.114 A 
ATOM     16  C   UNL     1      10.427 -15.954  12.388  1.00  0.00     0.047 C 
ATOM     17  H   UNL     1      13.602 -17.964  15.052  1.00  0.00     0.167 HD
ENDBRANCH   1   7
BRANCH   5  18
ATOM     18  N   UNL     1       5.658 -17.214  12.068  1.00  0.00    -0.363 N 
ATOM     19  C   UNL     1       5.936 -15.873  12.581  1.00  0.00     0.144 C 
ATOM     20  C   UNL     1       4.496 -17.285  11.180  1.00  0.00     0.144 C 
ENDBRANCH   5  18
TORSDOF 2
ENDMDL
MODEL 16
REMARK VINA RESULT:    -6.882      2.629      4.762
REMARK INTER + INTRA:          -8.247
REMARK INTER:                  -7.669
REMARK INTRA:                  -0.578
REMARK UNBOUND:                -0.560
REMARK SMILES Cc1c[nH]c2nccc(-c3ccnc(N(C)C)c3)c12
REMARK SMILES IDX 10 1 11 2 12 3 13 4 14 5 18 6 9 7 2 8 3 9 19 10 4 11 5 12
REMARK SMILES IDX 8 13 6 14 7 15 1 16 15 18 16 19 17 20
REMARK H PARENT 4 17
ROOT
ATOM      1  C   UNL     1       9.472 -16.694  12.212  1.00  0.00    -0.012 A 
ATOM      2  C   UNL     1      10.434 -16.027  11.460  1.00  0.00     0.029 A 
ATOM      3  C   UNL     1      10.168 -14.733  11.059  1.00  0.00     0.114 A 
ATOM      4  N   UNL     1       9.032 -14.068  11.363  1.00  0.00    -0.239 NA
ATOM      5  C   UNL     1       8.096 -14.693  12.110  1.00  0.00     0.128 A 
ATOM      6  C   UNL     1       8.294 -16.008  12.537  1.00  0.00     0.055 A 
ENDROOT
BRANCH   1   7
ATOM      7  C   UNL     1       9.687 -18.068  12.656  1.00  0.00    -0.005 A 
ATOM      8  C   UNL     1       8.474 -19.367  10.683  1.00  0.00    -0.023 A 
ATOM      9  C   UNL     1       8.323 -20.735  10.523  1.00  0.00     0.088 A 
ATOM     10  C   UNL     1       9.201 -19.167  11.908  1.00  0.00     0.029 A 
ATOM     11  N   UNL     1       8.922 -21.361  11.581  1.00  0.00    -0.346 N 
ATOM     12  C   UNL     1       9.460 -20.434  12.426  1.00  0.00     0.138 A 
ATOM     13  C   UNL     1      10.383 -18.349  13.842  1.00  0.00     0.029 A 
ATOM     14  N   UNL     1      10.120 -20.750  13.556  1.00  0.00    -0.239 NA
ATOM     15  C   UNL     1      10.562 -19.668  14.229  1.00  0.00     0.114 A 
ATOM     16  C   UNL     1       7.968 -18.328   9.747  1.00  0.00     0.047 C 
ATOM     17  H   UNL     1       8.976 -22.357  11.739  1.00  0.00     0.167 HD
ENDBRANCH   1   7
BRANCH   5  18
ATOM     18  N   UNL     1       6.893 -14.027  12.429  1.00  0.00    -0.363 N 
ATOM     19  C   UNL     1       7.029 -12.570  12.415  1.00  0.00     0.144 C 
ATOM     20  C   UNL     1       5.749 -14.527  11.666  1.00  0.00     0.144 C 
ENDBRANCH   5  18
TORSDOF 2
ENDMDL
MODEL 17
REMARK VINA RESULT:    -6.866      1.804      5.946
REMARK INTER + INTRA:          -8.230
REMARK INTER:                  -7.768
REMARK INTRA:                  -0.462
REMARK UNBOUND:                -0.560
REMARK SMILES Cc1c[nH]c2nccc(-c3ccnc(N(C)C)c3)c12
REMARK SMILES IDX 10 1 11 2 12 3 13 4 14 5 18 6 9 7 2 8 3 9 19 10 4 11 5 12
REMARK SMILES IDX 8 13 6 14 7 15 1 16 15 18 16 19 17 20
REMARK H PARENT 4 17
ROOT
ATOM      1  C   UNL     1       8.997 -17.938  11.703  1.00  0.00    -0.012 A 
ATOM      2  C   UNL     1       9.129 -18.439  10.412  1.00  0.00     0.029 A 
ATOM      3  C   UNL     1       7.999 -18.517   9.623  1.00  0.00     0.114 A 
ATOM      4  N   UNL     1       6.771 -18.123  10.024  1.00  0.00    -0.239 NA
ATOM      5  C   UNL     1       6.628 -17.615  11.268  1.00  0.00     0.128 A 
ATOM      6  C   UNL     1       7.727 -17.521  12.124  1.00  0.00     0.055 A 
ENDROOT
BRANCH   1   7
ATOM      7  C   UNL     1      10.151 -17.842  12.592  1.00  0.00    -0.005 A 
ATOM      8  C   UNL     1      10.422 -20.403  13.245  1.00  0.00    -0.023 A 
ATOM      9  C   UNL     1      11.359 -20.977  14.089  1.00  0.00     0.088 A 
ATOM     10  C   UNL     1      10.693 -18.990  13.220  1.00  0.00     0.029 A 
ATOM     11  N   UNL     1      12.175 -19.988  14.564  1.00  0.00    -0.346 N 
ATOM     12  C   UNL     1      11.792 -18.782  14.050  1.00  0.00     0.138 A 
ATOM     13  C   UNL     1      10.766 -16.608  12.857  1.00  0.00     0.029 A 
ATOM     14  N   UNL     1      12.412 -17.622  14.334  1.00  0.00    -0.239 NA
ATOM     15  C   UNL     1      11.858 -16.562  13.710  1.00  0.00     0.114 A 
ATOM     16  C   UNL     1       9.351 -21.135  12.518  1.00  0.00     0.047 C 
ATOM     17  H   UNL     1      12.951 -20.102  15.199  1.00  0.00     0.167 HD
ENDBRANCH   1   7
BRANCH   5  18
ATOM     18  N   UNL     1       5.353 -17.211  11.719  1.00  0.00    -0.363 N 
ATOM     19  C   UNL     1       5.406 -16.055  12.614  1.00  0.00     0.144 C 
ATOM     20  C   UNL     1       4.383 -17.079  10.631  1.00  0.00     0.144 C 
ENDBRANCH   5  18
TORSDOF 2
ENDMDL
MODEL 18
REMARK VINA RESULT:    -6.811      2.406      4.938
REMARK INTER + INTRA:          -8.167
REMARK INTER:                  -7.580
REMARK INTRA:                  -0.587
REMARK UNBOUND:                -0.560
REMARK SMILES Cc1c[nH]c2nccc(-c3ccnc(N(C)C)c3)c12
REMARK SMILES IDX 10 1 11 2 12 3 13 4 14 5 18 6 9 7 2 8 3 9 19 10 4 11 5 12
REMARK SMILES IDX 8 13 6 14 7 15 1 16 15 18 16 19 17 20
REMARK H PARENT 4 17
ROOT
ATOM      1  C   UNL     1      10.276 -17.067  13.972  1.00  0.00    -0.012 A 
ATOM      2  C   UNL     1       9.741 -16.512  15.132  1.00  0.00     0.029 A 
ATOM      3  C   UNL     1       9.036 -15.331  15.026  1.00  0.00     0.114 A 
ATOM      4  N   UNL     1       8.821 -14.683  13.860  1.00  0.00    -0.239 NA
ATOM      5  C   UNL     1       9.315 -15.218  12.722  1.00  0.00     0.128 A 
ATOM      6  C   UNL     1      10.052 -16.404  12.759  1.00  0.00     0.055 A 
ENDROOT
BRANCH   1   7
ATOM      7  C   UNL     1      11.043 -18.307  14.020  1.00  0.00    -0.005 A 
ATOM      8  C   UNL     1       9.103 -20.049  13.513  1.00  0.00    -0.023 A 
ATOM      9  C   UNL     1       9.191 -21.429  13.428  1.00  0.00     0.088 A 
ATOM     10  C   UNL     1      10.425 -19.563  13.807  1.00  0.00     0.029 A 
ATOM     11  N   UNL     1      10.490 -21.792  13.650  1.00  0.00    -0.346 N 
ATOM     12  C   UNL     1      11.252 -20.682  13.878  1.00  0.00     0.138 A 
ATOM     13  C   UNL     1      12.423 -18.301  14.278  1.00  0.00     0.029 A 
ATOM     14  N   UNL     1      12.574 -20.724  14.124  1.00  0.00    -0.239 NA
ATOM     15  C   UNL     1      13.113 -19.503  14.318  1.00  0.00     0.114 A 
ATOM     16  C   UNL     1       7.862 -19.251  13.330  1.00  0.00     0.047 C 
ATOM     17  H   UNL     1      10.861 -22.732  13.651  1.00  0.00     0.167 HD
ENDBRANCH   1   7
BRANCH   5  18
ATOM     18  N   UNL     1       9.120 -14.553  11.491  1.00  0.00    -0.363 N 
ATOM     19  C   UNL     1       8.640 -13.181  11.656  1.00  0.00     0.144 C 
ATOM     20  C   UNL     1      10.265 -14.681  10.590  1.00  0.00     0.144 C 
ENDBRANCH   5  18
TORSDOF 2
ENDMDL
MODEL 19
REMARK VINA RESULT:    -6.752      3.363      5.912
REMARK INTER + INTRA:          -8.102
REMARK INTER:                  -7.529
REMARK INTRA:                  -0.573
REMARK UNBOUND:                -0.560
REMARK SMILES Cc1c[nH]c2nccc(-c3ccnc(N(C)C)c3)c12
REMARK SMILES IDX 10 1 11 2 12 3 13 4 14 5 18 6 9 7 2 8 3 9 19 10 4 11 5 12
REMARK SMILES IDX 8 13 6 14 7 15 1 16 15 18 16 19 17 20
REMARK H PARENT 4 17
ROOT
ATOM      1  C   UNL     1       8.166 -16.404  11.640  1.00  0.00    -0.012 A 
ATOM      2  C   UNL     1       8.773 -16.659  10.413  1.00  0.00     0.029 A 
ATOM      3  C   UNL     1       9.128 -17.959  10.117  1.00  0.00     0.114 A 
ATOM      4  N   UNL     1       8.912 -19.006  10.943  1.00  0.00    -0.239 NA
ATOM      5  C   UNL     1       8.305 -18.781  12.129  1.00  0.00     0.128 A 
ATOM      6  C   UNL     1       7.932 -17.487  12.499  1.00  0.00     0.055 A 
ENDROOT
BRANCH   1   7
ATOM      7  C   UNL     1       7.779 -15.049  12.018  1.00  0.00    -0.005 A 
ATOM      8  C   UNL     1       5.383 -14.937  10.877  1.00  0.00    -0.023 A 
ATOM      9  C   UNL     1       4.487 -13.881  10.867  1.00  0.00     0.088 A 
ATOM     10  C   UNL     1       6.533 -14.504  11.625  1.00  0.00     0.029 A 
ATOM     11  N   UNL     1       5.036 -12.844  11.570  1.00  0.00    -0.346 N 
ATOM     12  C   UNL     1       6.268 -13.200  12.038  1.00  0.00     0.138 A 
ATOM     13  C   UNL     1       8.628 -14.236  12.786  1.00  0.00     0.029 A 
ATOM     14  N   UNL     1       7.050 -12.386  12.771  1.00  0.00    -0.239 NA
ATOM     15  C   UNL     1       8.222 -12.953  13.121  1.00  0.00     0.114 A 
ATOM     16  C   UNL     1       5.168 -16.257  10.226  1.00  0.00     0.047 C 
ATOM     17  H   UNL     1       4.616 -11.941  11.737  1.00  0.00     0.167 HD
ENDBRANCH   1   7
BRANCH   5  18
ATOM     18  N   UNL     1       8.081 -19.855  13.018  1.00  0.00    -0.363 N 
ATOM     19  C   UNL     1       8.216 -21.162  12.375  1.00  0.00     0.144 C 
ATOM     20  C   UNL     1       8.832 -19.723  14.266  1.00  0.00     0.144 C 
ENDBRANCH   5  18
TORSDOF 2
ENDMDL
MODEL 20
REMARK VINA RESULT:    -6.740      2.652      4.804
REMARK INTER + INTRA:          -8.089
REMARK INTER:                  -7.672
REMARK INTRA:                  -0.417
REMARK UNBOUND:                -0.560
REMARK SMILES Cc1c[nH]c2nccc(-c3ccnc(N(C)C)c3)c12
REMARK SMILES IDX 10 1 11 2 12 3 13 4 14 5 18 6 9 7 2 8 3 9 19 10 4 11 5 12
REMARK SMILES IDX 8 13 6 14 7 15 1 16 15 18 16 19 17 20
REMARK H PARENT 4 17
ROOT
ATOM      1  C   UNL     1       9.180 -16.874  11.754  1.00  0.00    -0.012 A 
ATOM      2  C   UNL     1      10.203 -16.267  11.031  1.00  0.00     0.029 A 
ATOM      3  C   UNL     1      10.173 -14.896  10.882  1.00  0.00     0.114 A 
ATOM      4  N   UNL     1       9.214 -14.101  11.406  1.00  0.00    -0.239 NA
ATOM      5  C   UNL     1       8.225 -14.671  12.128  1.00  0.00     0.128 A 
ATOM      6  C   UNL     1       8.186 -16.056  12.306  1.00  0.00     0.055 A 
ENDROOT
BRANCH   1   7
ATOM      7  C   UNL     1       9.148 -18.322  11.937  1.00  0.00    -0.005 A 
ATOM      8  C   UNL     1      11.123 -18.592  13.691  1.00  0.00    -0.023 A 
ATOM      9  C   UNL     1      11.604 -19.757  14.267  1.00  0.00     0.088 A 
ATOM     10  C   UNL     1      10.051 -18.973  12.810  1.00  0.00     0.029 A 
ATOM     11  N   UNL     1      10.877 -20.809  13.784  1.00  0.00    -0.346 N 
ATOM     12  C   UNL     1       9.933 -20.358  12.906  1.00  0.00     0.138 A 
ATOM     13  C   UNL     1       8.219 -19.121  11.252  1.00  0.00     0.029 A 
ATOM     14  N   UNL     1       9.062 -21.163  12.270  1.00  0.00    -0.239 NA
ATOM     15  C   UNL     1       8.225 -20.493  11.452  1.00  0.00     0.114 A 
ATOM     16  C   UNL     1      11.640 -17.223  13.954  1.00  0.00     0.047 C 
ATOM     17  H   UNL     1      10.995 -21.783  14.022  1.00  0.00     0.167 HD
ENDBRANCH   1   7
BRANCH   5  18
ATOM     18  N   UNL     1       7.201 -13.866  12.674  1.00  0.00    -0.363 N 
ATOM     19  C   UNL     1       7.599 -12.466  12.825  1.00  0.00     0.144 C 
ATOM     20  C   UNL     1       5.915 -14.052  12.002  1.00  0.00     0.144 C 
ENDBRANCH   5  18
TORSDOF 2
ENDMDL
