@<TRIPOS>MOLECULE
LIG
   35    37     1     0     0
SMALL
bcc


@<TRIPOS>ATOM
      1 C           10.1190   -16.5930    11.9000 c3         1 LIG      -0.027900
      2 C1           9.0270   -17.5610    11.5940 cc         1 LIG      -0.121400
      3 C2           7.9540   -17.3310    10.7830 cd         1 LIG      -0.106100
      4 N            7.1630   -18.4480    10.6970 na         1 LIG      -0.287100
      5 C3           7.7230   -19.4330    11.4440 ca         1 LIG       0.421800
      6 N1           7.2540   -20.6660    11.5710 nb         1 LIG      -0.670000
      7 C4           7.9850   -21.4670    12.3250 ca         1 LIG       0.411200
      8 C5           9.1590   -21.0830    12.9690 ca         1 LIG      -0.262300
      9 C6           9.6370   -19.7840    12.8590 cp         1 LIG       0.035000
     10 C7          10.8510   -19.3770    13.5840 cp         1 LIG       0.024000
     11 C8          12.0660   -20.0310    13.3610 ca         1 LIG      -0.277300
     12 C9          13.1650   -19.6020    14.0760 ca         1 LIG       0.428200
     13 N2          13.1370   -18.6260    14.9650 nb         1 LIG      -0.717000
     14 C10         11.9760   -18.0050    15.2070 ca         1 LIG       0.635200
     15 N3          11.9910   -17.0330    16.1580 nh         1 LIG      -0.753300
     16 C11         13.2360   -16.5970    16.7390 c3         1 LIG       0.186100
     17 C12         10.8170   -16.2560    16.4640 c3         1 LIG       0.186100
     18 C13         10.8020   -18.3600    14.5200 ca         1 LIG      -0.276300
     19 C14          8.9010   -18.9110    12.0480 ca         1 LIG      -0.176100
     20 H            9.9950   -16.1640    12.8940 hc         1 LIG       0.043700
     21 H1          11.0880   -17.0880    11.8700 hc         1 LIG       0.043700
     22 H2          10.1110   -15.7830    11.1750 hc         1 LIG       0.043700
     23 H3           7.6960   -16.4370    10.2480 h4         1 LIG       0.169000
     24 H4           6.3260   -18.5460    10.1500 hn         1 LIG       0.310700
     25 H5           7.6100   -22.4770    12.4240 h4         1 LIG       0.023100
     26 H6           9.6920   -21.7980    13.5780 ha         1 LIG       0.148000
     27 H7          12.1390   -20.8290    12.6390 ha         1 LIG       0.149000
     28 H8          14.1360   -20.0610    13.9350 h4         1 LIG       0.020100
     29 H9          13.1790   -16.6370    17.8290 h1         1 LIG       0.041200
     30 H10         14.0190   -17.2650    16.3910 h1         1 LIG       0.041200
     31 H11         13.4710   -15.5720    16.4340 h1         1 LIG       0.041200
     32 H12         11.0350   -15.6210    17.3190 h1         1 LIG       0.041200
     33 H13         10.5170   -15.6160    15.6260 h1         1 LIG       0.041200
     34 H14          9.9780   -16.9040    16.7280 h1         1 LIG       0.041200
     35 H15          9.8640   -17.8650    14.7120 ha         1 LIG       0.152000
@<TRIPOS>BOND
     1    24     4 1   
     2    23     3 1   
     3     4     3 1   
     4     4     5 1   
     5     3     2 2   
     6    22     1 1   
     7     5     6 ar  
     8     5    19 ar  
     9     6     7 ar  
    10     2     1 1   
    11     2    19 1   
    12    21     1 1   
    13     1    20 1   
    14    19     9 ar  
    15     7    25 1   
    16     7     8 ar  
    17    27    11 1   
    18     9     8 ar  
    19     9    10 1   
    20     8    26 1   
    21    11    10 ar  
    22    11    12 ar  
    23    10    18 ar  
    24    28    12 1   
    25    12    13 ar  
    26    18    35 1   
    27    18    14 ar  
    28    13    14 ar  
    29    14    15 1   
    30    33    17 1   
    31    15    17 1   
    32    15    16 1   
    33    30    16 1   
    34    31    16 1   
    35    17    34 1   
    36    17    32 1   
    37    16    29 1   
@<TRIPOS>SUBSTRUCTURE
     1 LIG         1 TEMP              0 ****  ****    0 ROOT
