@<TRIPOS>MOLECULE
/home/neil/git/Oslo/VirtualScreen/Outputs/Covalent/Inhib_32_chlo/params/adduct.pdb
 56 59 0 0 0
SMALL
GASTEIGER

@<TRIPOS>ATOM
      1 CN       1.7610    50.4590    84.4030 C.3       1 MOL     -0.0155
      2 HN1      1.9480    49.8040    85.2540 H         1 MOL      0.0388
      3 HN2      1.1860    51.3250    84.7310 H         1 MOL      0.0388
      4 HN3      2.7100    50.7910    83.9840 H         1 MOL      0.0388
      5 N        1.0020    49.7260    83.3790 N.3       1 MOL     -0.3157
      6 H        1.0020    50.2660    82.5250 H         1 MOL      0.1219
      7 CA       0.2500    49.0000    82.3630 C.3       1 MOL      0.0135
      8 HA       0.3070    49.5360    81.4160 H         1 MOL      0.0465
      9 CB       0.8460    47.5940    82.1920 C.3       1 MOL      0.0093
     10 HB2      1.5870    47.5100    81.3970 H         1 MOL      0.0392
     11 HB3      1.6910    47.3780    82.8460 H         1 MOL      0.0392
     12 SG      -0.4370    46.3060    82.1660 S.3       1 MOL     -0.1499
     13 CC      -1.2080    48.8850    82.7950 C.3       1 MOL     -0.0489
     14 HC1     -1.3450    47.9700    83.3720 H         1 MOL      0.0245
     15 HC2     -1.8470    48.8580    81.9130 H         1 MOL      0.0245
     16 HC3     -1.4740    49.7450    83.4100 H         1 MOL      0.0245
     17 C1      -0.2870    45.9220    80.3770 C.3       1 MOL      0.0705
     18 N2      -0.6860    43.5330    80.6570 N.am      1 MOL     -0.2867
     19 C3       0.1750    44.5120    80.2530 C.2       1 MOL      0.2269
     20 O4       1.2250    44.2820    79.6790 O.2       1 MOL     -0.2746
     21 H5      -1.5030    43.8620    81.1990 H         1 MOL      0.1546
     22 C6      -0.6830    42.1360    80.2990 C.2       1 MOL      0.0329
     23 C7       0.6040    41.3870    79.9830 C.2       1 MOL      0.0450
     24 N8       0.6670    40.6390    78.7480 N.2       1 MOL     -0.2597
     25 C9      -0.1380    39.7290    78.3270 C.2       1 MOL      0.0512
     26 C10     -1.4450    39.4020    78.9180 C.ar      1 MOL      0.0617
     27 N11     -2.1420    38.3140    78.5410 N.ar      1 MOL     -0.3591
     28 C12     -3.3500    38.3800    79.1220 C.ar      1 MOL      0.0117
     29 C13     -3.4420    39.5250    79.8900 C.ar      1 MOL      0.0223
     30 C14     -2.2120    40.1820    79.7680 C.ar      1 MOL     -0.0065
     31 C15     -1.8930    41.5410    80.2450 C.3       1 MOL      0.0149
     32 H16     -1.8260    37.5690    77.8790 H         1 MOL      0.1654
     33 C17     -4.6770    39.9420    80.5990 C.ar      1 MOL      0.0806
     34 C18     -5.1130    39.4410    81.8290 C.ar      1 MOL      0.0038
     35 S19     -6.5210    40.2530    82.2570 S.2       1 MOL     -0.0735
     36 C20     -6.5280    41.2100    80.8760 C.ar      1 MOL      0.1269
     37 N21     -5.4800    40.9110    80.0740 N.ar      1 MOL     -0.2375
     38 C22     -7.5050    42.2870    80.6040 C.2       1 MOL      0.0949
     39 C23     -8.4330    42.6280    81.5210 C.2       1 MOL     -0.0390
     40 C24     -9.4370    43.7000    81.2130 C.3       1 MOL      0.0306
     41 N25     -9.3280    44.2860    79.8970 N.pl3     1 MOL     -0.3313
     42 C26     -8.3110    43.8650    78.9990 C.2       1 MOL      0.0822
     43 N27     -7.4740    42.9430    79.3340 N.2       1 MOL     -0.2382
     44 H28     -9.9950    45.0170    79.6080 H         1 MOL      0.1472
     45 H        0.4237    46.5796    79.9216 H         1 MOL      0.0471
     46 H       -1.2287    46.0520    79.8859 H         1 MOL      0.0471
     47 H        1.4069    41.4126    80.6308 H         1 MOL      0.0845
     48 H        0.1581    39.1811    77.5041 H         1 MOL      0.0850
     49 H       -4.0994    37.6792    79.0115 H         1 MOL      0.0814
     50 H       -2.2539    41.5672    81.2520 H         1 MOL      0.0375
     51 H       -2.3147    42.1011    79.4367 H         1 MOL      0.0375
     52 H       -4.6503    38.7005    82.3792 H         1 MOL      0.0715
     53 H       -8.4528    42.1511    82.4360 H         1 MOL      0.0609
     54 H      -10.4144    43.2745    81.3058 H         1 MOL      0.0506
     55 H       -9.2476    44.4921    81.9070 H         1 MOL      0.0506
     56 H       -8.2411    44.3025    78.0669 H         1 MOL      0.0997
@<TRIPOS>BOND
     1     1     5    1
     2     1     2    1
     3     1     3    1
     4     1     4    1
     5     5     7    1
     6     5     6    1
     7     7     9    1
     8     7    13    1
     9     7     8    1
    10     9    12    1
    11     9    10    1
    12     9    11    1
    13    12    17    1
    14    13    14    1
    15    13    15    1
    16    13    16    1
    17    32    27    1
    18    25    24    2
    19    25    26    1
    20    27    26   ar
    21    27    28   ar
    22    24    23    1
    23    26    30   ar
    24    42    43    2
    25    42    41    1
    26    28    29   ar
    27    43    38    1
    28    44    41    1
    29    20    19    2
    30    30    29   ar
    31    30    31    1
    32    29    33    1
    33    41    40    1
    34    23    22    2
    35    37    33   ar
    36    37    36   ar
    37    31    22    1
    38    19    17    1
    39    19    18   am
    40    22    18    1
    41    33    34   ar
    42    38    36    1
    43    38    39    2
    44    18    21    1
    45    36    35   ar
    46    40    39    1
    47    34    35   ar
    48    17    45    1
    49    17    46    1
    50    23    47    1
    51    25    48    1
    52    28    49    1
    53    31    50    1
    54    31    51    1
    55    34    52    1
    56    39    53    1
    57    40    54    1
    58    40    55    1
    59    42    56    1
