@<TRIPOS>MOLECULE
/home/neil/git/Oslo/VirtualScreen/Outputs/Covalent/Inhib_32_chlo/params/adduct.pdb
   56    59     1     0     0
SMALL
bcc


@<TRIPOS>ATOM
      1 CN           1.7610    50.4590    84.4030 c3         1 MOL       0.144100
      2 HN1          1.9480    49.8040    85.2540 h1         1 MOL       0.030700
      3 HN2          1.1860    51.3250    84.7310 h1         1 MOL       0.030700
      4 HN3          2.7100    50.7910    83.9840 h1         1 MOL       0.030700
      5 N            1.0020    49.7260    83.3790 n7         1 MOL      -0.814200
      6 H            1.0020    50.2660    82.5250 hn         1 MOL       0.358800
      7 CA           0.2500    49.0000    82.3630 c3         1 MOL       0.177500
      8 HA           0.3070    49.5360    81.4160 h1         1 MOL       0.060700
      9 CB           0.8460    47.5940    82.1920 c3         1 MOL      -0.025300
     10 HB2          1.5870    47.5100    81.3970 h1         1 MOL       0.095200
     11 HB3          1.6910    47.3780    82.8460 h1         1 MOL       0.095200
     12 SG          -0.4370    46.3060    82.1660 ss         1 MOL      -0.272200
     13 CC          -1.2080    48.8850    82.7950 c3         1 MOL      -0.134100
     14 HC1         -1.3450    47.9700    83.3720 hc         1 MOL       0.042033
     15 HC2         -1.8470    48.8580    81.9130 hc         1 MOL       0.042033
     16 HC3         -1.4740    49.7450    83.4100 hc         1 MOL       0.042033
     17 C1          -0.2870    45.9220    80.3770 c3         1 MOL      -0.106300
     18 N2          -0.6860    43.5330    80.6570 ns         1 MOL      -0.453100
     19 C3           0.1750    44.5120    80.2530 c          1 MOL       0.660100
     20 O4           1.2250    44.2820    79.6790 o          1 MOL      -0.593100
     21 H5          -1.5030    43.8620    81.1990 hn         1 MOL       0.333500
     22 C6          -0.6830    42.1360    80.2990 c2         1 MOL       0.022400
     23 C7           0.6040    41.3870    79.9830 ce         1 MOL      -0.026400
     24 N8           0.6670    40.6390    78.7480 nf         1 MOL      -0.546300
     25 C9          -0.1380    39.7290    78.3270 ce         1 MOL       0.471800
     26 C10         -1.4450    39.4020    78.9180 cc         1 MOL      -0.222200
     27 N11         -2.1420    38.3140    78.5410 na         1 MOL      -0.154100
     28 C12         -3.3500    38.3800    79.1220 cc         1 MOL      -0.125300
     29 C13         -3.4420    39.5250    79.8900 cd         1 MOL      -0.188500
     30 C14         -2.2120    40.1820    79.7680 cd         1 MOL      -0.074300
     31 C15         -1.8930    41.5410    80.2450 c3         1 MOL       0.013100
     32 H16         -1.8260    37.5690    77.8790 hn         1 MOL       0.300700
     33 C17         -4.6770    39.9420    80.5990 cd         1 MOL       0.440800
     34 C18         -5.1130    39.4410    81.8290 cc         1 MOL      -0.268400
     35 S19         -6.5210    40.2530    82.2570 ss         1 MOL      -0.084300
     36 C20         -6.5280    41.2100    80.8760 cc         1 MOL       0.464200
     37 N21         -5.4800    40.9110    80.0740 nd         1 MOL      -0.603000
     38 C22         -7.5050    42.2870    80.6040 ce         1 MOL       0.077800
     39 C23         -8.4330    42.6280    81.5210 c2         1 MOL      -0.240200
     40 C24         -9.4370    43.7000    81.2130 c6         1 MOL       0.249000
     41 N25         -9.3280    44.2860    79.8970 nu         1 MOL      -0.865200
     42 C26         -8.3110    43.8650    78.9990 c2         1 MOL       0.631100
     43 N27         -7.4740    42.9430    79.3340 ne         1 MOL      -0.625300
     44 H28         -9.9950    45.0170    79.6080 hn         1 MOL       0.431800
     45 H3           0.4240    46.5800    79.9220 h1         1 MOL       0.098700
     46 H4          -1.2290    46.0520    79.8860 h1         1 MOL       0.098700
     47 H6           1.4070    41.4130    80.6310 h4         1 MOL       0.192000
     48 H7           0.1580    39.1810    77.5040 h4         1 MOL       0.015800
     49 H8          -4.0990    37.6790    79.0110 h4         1 MOL       0.169000
     50 H9          -2.2540    41.5670    81.2520 hc         1 MOL       0.075200
     51 H10         -2.3150    42.1010    79.4370 hc         1 MOL       0.075200
     52 H11         -4.6500    38.7000    82.3790 h4         1 MOL       0.179000
     53 H12         -8.4530    42.1510    82.4360 ha         1 MOL       0.148000
     54 H13        -10.4140    43.2750    81.3060 h1         1 MOL       0.039700
     55 H14         -9.2480    44.4920    81.9070 h1         1 MOL       0.039700
     56 H15         -8.2410    44.3030    78.0670 h5         1 MOL       0.044800
@<TRIPOS>BOND
     1     1     5 1   
     2     1     2 1   
     3     1     3 1   
     4     1     4 1   
     5     5     7 1   
     6     5     6 1   
     7     7     9 1   
     8     7    13 1   
     9     7     8 1   
    10     9    12 1   
    11     9    10 1   
    12     9    11 1   
    13    12    17 1   
    14    13    14 1   
    15    13    15 1   
    16    13    16 1   
    17    32    27 1   
    18    25    24 2   
    19    25    26 1   
    20    27    26 1   
    21    27    28 1   
    22    24    23 1   
    23    26    30 2   
    24    42    43 2   
    25    42    41 1   
    26    28    29 2   
    27    43    38 1   
    28    44    41 1   
    29    20    19 2   
    30    30    29 1   
    31    30    31 1   
    32    29    33 1   
    33    41    40 1   
    34    23    22 2   
    35    37    33 1   
    36    37    36 2   
    37    31    22 1   
    38    19    17 1   
    39    19    18 1   
    40    22    18 1   
    41    33    34 2   
    42    38    36 1   
    43    38    39 2   
    44    18    21 1   
    45    36    35 1   
    46    40    39 1   
    47    34    35 1   
    48    17    45 1   
    49    17    46 1   
    50    23    47 1   
    51    25    48 1   
    52    28    49 1   
    53    31    50 1   
    54    31    51 1   
    55    34    52 1   
    56    39    53 1   
    57    40    54 1   
    58    40    55 1   
    59    42    56 1   
@<TRIPOS>SUBSTRUCTURE
     1 MOL         1 TEMP              0 ****  ****    0 ROOT
