_Inhib_32_acrylamide
     RDKit          3D

  0  0  0  0  0  0  0  0  0  0999 V3000
M  V30 BEGIN CTAB
M  V30 COUNTS 29 32 0 0 0
M  V30 BEGIN ATOM
M  V30 1 C 0.290600 44.615100 81.790600 0
M  V30 2 C -0.203300 43.829600 80.520000 0
M  V30 3 N -0.444900 44.990000 78.286600 0
M  V30 4 C -0.963000 44.688000 79.525200 0
M  V30 5 O -2.026700 45.169700 79.888500 0
M  V30 6 H 0.416500 44.501500 77.998600 0
M  V30 7 C -0.915800 46.077900 77.444300 0
M  V30 8 C 0.067800 46.851900 76.577400 0
M  V30 9 N 0.018200 48.290300 76.563400 0
M  V30 10 C -1.008100 48.987500 76.229300 0
M  V30 11 C -2.334800 48.422100 75.915700 0
M  V30 12 N -3.232200 49.115100 75.194800 0
M  V30 13 C -4.342100 48.372200 75.101700 0
M  V30 14 C -4.187100 47.179300 75.788900 0
M  V30 15 C -2.886700 47.208300 76.332000 0
M  V30 16 C -2.245000 46.215200 77.240400 0
M  V30 17 H -3.094400 50.060100 74.771700 0
M  V30 18 C -5.278200 46.163000 75.825700 0
M  V30 19 C -6.014200 45.676300 74.740300 0
M  V30 20 S -7.151500 44.578400 75.320100 0
M  V30 21 C -6.688600 44.764500 76.922000 0
M  V30 22 N -5.672600 45.648100 77.026800 0
M  V30 23 C -7.318200 44.083400 78.075300 0
M  V30 24 C -8.564200 44.411400 78.472900 0
M  V30 25 C -9.193500 43.704000 79.636100 0
M  V30 26 N -8.374600 42.688200 80.255400 0
M  V30 27 C -7.068800 42.413000 79.767000 0
M  V30 28 N -6.589900 43.061800 78.758900 0
M  V30 29 H -8.742100 42.158000 81.058600 0
M  V30 END ATOM
M  V30 BEGIN BOND
M  V30 1 1 7 8
M  V30 2 2 7 16
M  V30 3 1 8 9
M  V30 4 2 9 10
M  V30 5 1 10 11
M  V30 6 1 11 12
M  V30 7 2 11 15
M  V30 8 1 12 13
M  V30 9 2 13 14
M  V30 10 1 14 18
M  V30 11 1 14 15
M  V30 12 2 18 19
M  V30 13 1 18 22
M  V30 14 1 19 20
M  V30 15 1 20 21
M  V30 16 1 21 23
M  V30 17 2 21 22
M  V30 18 2 23 24
M  V30 19 1 23 28
M  V30 20 1 24 25
M  V30 21 1 25 26
M  V30 22 1 26 27
M  V30 23 2 27 28
M  V30 24 1 15 16
M  V30 25 1 3 4
M  V30 26 2 4 5
M  V30 27 1 4 2
M  V30 28 1 2 1
M  V30 29 1 7 3
M  V30 30 1 12 17
M  V30 31 1 26 29
M  V30 32 1 3 6
M  V30 END BOND
M  V30 END CTAB
M  END
>  <minimizedAffinity>  (1) 
-5.98540

$$$$
