_Inhib_32_acrylamide


 29 32  0  0  0  0  0  0  0  0999 V2000
   -0.0410   44.9632   80.9131 C   0  0  0  0  0  0  0  0  0  0  0  0
   -1.2180   44.1470   80.2620 C   0  0  0  0  0  0  0  0  0  0  0  0
   -2.4888   42.1552   81.1623 N   0  0  0  0  0  0  0  0  0  0  0  0
   -2.1343   43.4804   81.2717 C   0  0  0  0  0  0  0  0  0  0  0  0
   -2.6129   44.1813   82.1522 O   0  0  0  0  0  0  0  0  0  0  0  0
   -2.0028   41.5893   80.4502 H   0  0  0  0  0  0  0  0  0  0  0  0
   -3.6228   41.5512   81.8434 C   0  0  0  0  0  0  0  0  0  0  0  0
   -3.5450   41.2491   83.3336 C   0  0  0  0  0  0  0  0  0  0  0  0
   -3.9811   39.9661   83.8188 N   0  0  0  0  0  0  0  0  0  0  0  0
   -5.1613   39.4828   83.6616 C   0  0  0  0  0  0  0  0  0  0  0  0
   -6.2237   40.1197   82.8593 C   0  0  0  0  0  0  0  0  0  0  0  0
   -7.5176   39.8128   83.0516 N   0  0  0  0  0  0  0  0  0  0  0  0
   -8.2388   40.5124   82.1669 C   0  0  0  0  0  0  0  0  0  0  0  0
   -7.4106   41.2772   81.3616 C   0  0  0  0  0  0  0  0  0  0  0  0
   -6.0955   41.0188   81.7980 C   0  0  0  0  0  0  0  0  0  0  0  0
   -4.8162   41.5097   81.2099 C   0  0  0  0  0  0  0  0  0  0  0  0
   -7.9015   39.1548   83.7662 H   0  0  0  0  0  0  0  0  0  0  0  0
   -7.9707   42.1642   80.3012 C   0  0  0  0  0  0  0  0  0  0  0  0
   -9.3140   42.2948   79.9339 C   0  0  0  0  0  0  0  0  0  0  0  0
   -9.4113   43.3911   78.6596 S   0  0  0  0  0  0  0  0  0  0  0  0
   -7.7551   43.6532   78.6031 C   0  0  0  0  0  0  0  0  0  0  0  0
   -7.1227   42.9222   79.5465 N   0  0  0  0  0  0  0  0  0  0  0  0
   -7.0649   44.5376   77.6378 C   0  0  0  0  0  0  0  0  0  0  0  0
   -5.8653   44.1956   77.1260 C   0  0  0  0  0  0  0  0  0  0  0  0
   -5.1836   45.0967   76.1396 C   0  0  0  0  0  0  0  0  0  0  0  0
   -5.9034   46.3042   75.8088 N   0  0  0  0  0  0  0  0  0  0  0  0
   -7.1646   46.5815   76.4022 C   0  0  0  0  0  0  0  0  0  0  0  0
   -7.6935   45.7590   77.2451 N   0  0  0  0  0  0  0  0  0  0  0  0
   -5.4981   46.9702   75.1354 H   0  0  0  0  0  0  0  0  0  0  0  0
  7  8  1  0
  7 16  2  0
  8  9  1  0
  9 10  2  0
 10 11  1  0
 11 12  1  0
 11 15  2  0
 12 13  1  0
 13 14  2  0
 14 18  1  0
 14 15  1  0
 18 19  2  0
 18 22  1  0
 19 20  1  0
 20 21  1  0
 21 23  1  0
 21 22  2  0
 23 24  2  0
 23 28  1  0
 24 25  1  0
 25 26  1  0
 26 27  1  0
 27 28  2  0
 15 16  1  0
  3  4  1  0
  4  5  2  0
  4  2  1  0
  2  1  1  0
  7  3  1  0
 12 17  1  0
 26 29  1  0
  3  6  1  0
M  ISO 1   1  13
M  END
> <minimizedAffinity>
-7.44834

$$$$
_Inhib_32_acrylamide


 29 32  0  0  0  0  0  0  0  0999 V2000
   -0.2506   45.1767   80.6762 C   0  0  0  0  0  0  0  0  0  0  0  0
    0.0242   45.8081   79.2616 C   0  0  0  0  0  0  0  0  0  0  0  0
   -2.0900   44.9149   78.2007 N   0  0  0  0  0  0  0  0  0  0  0  0
   -1.2200   45.9612   78.4060 C   0  0  0  0  0  0  0  0  0  0  0  0
   -1.3893   47.0310   77.8381 O   0  0  0  0  0  0  0  0  0  0  0  0
   -1.9460   44.0593   78.7583 H   0  0  0  0  0  0  0  0  0  0  0  0
   -3.0701   44.8623   77.1277 C   0  0  0  0  0  0  0  0  0  0  0  0
   -2.6409   44.4674   75.7213 C   0  0  0  0  0  0  0  0  0  0  0  0
   -3.0871   45.2510   74.5995 N   0  0  0  0  0  0  0  0  0  0  0  0
   -4.3169   45.4625   74.2929 C   0  0  0  0  0  0  0  0  0  0  0  0
   -5.4670   45.0283   75.1095 C   0  0  0  0  0  0  0  0  0  0  0  0
   -6.6923   44.9034   74.5725 N   0  0  0  0  0  0  0  0  0  0  0  0
   -7.5298   44.5322   75.5488 C   0  0  0  0  0  0  0  0  0  0  0  0
   -6.8555   44.4310   76.7548 C   0  0  0  0  0  0  0  0  0  0  0  0
   -5.5136   44.7636   76.4803 C   0  0  0  0  0  0  0  0  0  0  0  0
   -4.3838   44.9054   77.4430 C   0  0  0  0  0  0  0  0  0  0  0  0
   -6.9522   45.0575   73.5726 H   0  0  0  0  0  0  0  0  0  0  0  0
   -7.5621   44.0155   78.0010 C   0  0  0  0  0  0  0  0  0  0  0  0
   -8.8397   44.4057   78.4159 C   0  0  0  0  0  0  0  0  0  0  0  0
   -9.1535   43.6925   79.9085 S   0  0  0  0  0  0  0  0  0  0  0  0
   -7.6623   42.9276   79.9892 C   0  0  0  0  0  0  0  0  0  0  0  0
   -6.9248   43.2003   78.8912 N   0  0  0  0  0  0  0  0  0  0  0  0
   -7.1940   42.0908   81.1166 C   0  0  0  0  0  0  0  0  0  0  0  0
   -8.0373   41.2471   81.7451 C   0  0  0  0  0  0  0  0  0  0  0  0
   -7.5451   40.3968   82.8784 C   0  0  0  0  0  0  0  0  0  0  0  0
   -6.1495   40.5624   83.2114 N   0  0  0  0  0  0  0  0  0  0  0  0
   -5.3369   41.4800   82.4922 C   0  0  0  0  0  0  0  0  0  0  0  0
   -5.8280   42.1808   81.5256 N   0  0  0  0  0  0  0  0  0  0  0  0
   -5.7399   40.0086   83.9775 H   0  0  0  0  0  0  0  0  0  0  0  0
  7  8  1  0
  7 16  2  0
  8  9  1  0
  9 10  2  0
 10 11  1  0
 11 12  1  0
 11 15  2  0
 12 13  1  0
 13 14  2  0
 14 18  1  0
 14 15  1  0
 18 19  2  0
 18 22  1  0
 19 20  1  0
 20 21  1  0
 21 23  1  0
 21 22  2  0
 23 24  2  0
 23 28  1  0
 24 25  1  0
 25 26  1  0
 26 27  1  0
 27 28  2  0
 15 16  1  0
  3  4  1  0
  4  5  2  0
  4  2  1  0
  2  1  1  0
  7  3  1  0
 12 17  1  0
 26 29  1  0
  3  6  1  0
M  ISO 1   1  13
M  END
> <minimizedAffinity>
-7.11375

$$$$
_Inhib_32_acrylamide


 29 32  0  0  0  0  0  0  0  0999 V2000
   -0.3421   45.2694   80.6020 C   0  0  0  0  0  0  0  0  0  0  0  0
   -1.1207   43.9039   80.5355 C   0  0  0  0  0  0  0  0  0  0  0  0
   -1.9547   44.6643   78.2729 N   0  0  0  0  0  0  0  0  0  0  0  0
   -1.8425   43.6727   79.2205 C   0  0  0  0  0  0  0  0  0  0  0  0
   -2.3912   42.5920   79.0575 O   0  0  0  0  0  0  0  0  0  0  0  0
   -1.4139   45.5296   78.4226 H   0  0  0  0  0  0  0  0  0  0  0  0
   -2.9199   44.6531   77.1853 C   0  0  0  0  0  0  0  0  0  0  0  0
   -2.4845   44.2494   75.7833 C   0  0  0  0  0  0  0  0  0  0  0  0
   -2.8847   45.0543   74.6592 N   0  0  0  0  0  0  0  0  0  0  0  0
   -4.1011   45.3125   74.3356 C   0  0  0  0  0  0  0  0  0  0  0  0
   -5.2786   44.9173   75.1328 C   0  0  0  0  0  0  0  0  0  0  0  0
   -6.4994   44.8403   74.5771 N   0  0  0  0  0  0  0  0  0  0  0  0
   -7.3646   44.4958   75.5388 C   0  0  0  0  0  0  0  0  0  0  0  0
   -6.7126   44.3639   76.7541 C   0  0  0  0  0  0  0  0  0  0  0  0
   -5.3554   44.6479   76.5013 C   0  0  0  0  0  0  0  0  0  0  0  0
   -4.2357   44.7433   77.4814 C   0  0  0  0  0  0  0  0  0  0  0  0
   -6.7385   45.0087   73.5743 H   0  0  0  0  0  0  0  0  0  0  0  0
   -7.4527   43.9688   77.9875 C   0  0  0  0  0  0  0  0  0  0  0  0
   -8.7223   44.4017   78.3840 C   0  0  0  0  0  0  0  0  0  0  0  0
   -9.0840   43.6946   79.8687 S   0  0  0  0  0  0  0  0  0  0  0  0
   -7.6217   42.8782   79.9696 C   0  0  0  0  0  0  0  0  0  0  0  0
   -6.8580   43.1290   78.8843 N   0  0  0  0  0  0  0  0  0  0  0  0
   -7.2003   42.0219   81.1008 C   0  0  0  0  0  0  0  0  0  0  0  0
   -8.0210   41.0684   81.5860 C   0  0  0  0  0  0  0  0  0  0  0  0
   -7.5753   40.2004   82.7251 C   0  0  0  0  0  0  0  0  0  0  0  0
   -6.2477   40.4728   83.2240 N   0  0  0  0  0  0  0  0  0  0  0  0
   -5.4547   41.5024   82.6490 C   0  0  0  0  0  0  0  0  0  0  0  0
   -5.9029   42.2119   81.6680 N   0  0  0  0  0  0  0  0  0  0  0  0
   -5.8724   39.9140   84.0039 H   0  0  0  0  0  0  0  0  0  0  0  0
  7  8  1  0
  7 16  2  0
  8  9  1  0
  9 10  2  0
 10 11  1  0
 11 12  1  0
 11 15  2  0
 12 13  1  0
 13 14  2  0
 14 18  1  0
 14 15  1  0
 18 19  2  0
 18 22  1  0
 19 20  1  0
 20 21  1  0
 21 23  1  0
 21 22  2  0
 23 24  2  0
 23 28  1  0
 24 25  1  0
 25 26  1  0
 26 27  1  0
 27 28  2  0
 15 16  1  0
  3  4  1  0
  4  5  2  0
  4  2  1  0
  2  1  1  0
  7  3  1  0
 12 17  1  0
 26 29  1  0
  3  6  1  0
M  ISO 1   1  13
M  END
> <minimizedAffinity>
-7.09568

$$$$
_Inhib_32_acrylamide


 29 32  0  0  0  0  0  0  0  0999 V2000
   -1.0006   45.9291   80.4139 C   0  0  0  0  0  0  0  0  0  0  0  0
    0.0102   46.1175   79.2231 C   0  0  0  0  0  0  0  0  0  0  0  0
   -1.0518   47.6894   77.5515 N   0  0  0  0  0  0  0  0  0  0  0  0
   -0.1070   47.4603   78.5256 C   0  0  0  0  0  0  0  0  0  0  0  0
    0.7191   48.3179   78.8042 O   0  0  0  0  0  0  0  0  0  0  0  0
   -1.7705   46.9645   77.4051 H   0  0  0  0  0  0  0  0  0  0  0  0
   -0.9944   48.7835   76.5952 C   0  0  0  0  0  0  0  0  0  0  0  0
    0.3114   49.1047   75.8812 C   0  0  0  0  0  0  0  0  0  0  0  0
    0.7546   50.4716   75.7986 N   0  0  0  0  0  0  0  0  0  0  0  0
    0.0874   51.4297   75.2618 C   0  0  0  0  0  0  0  0  0  0  0  0
   -1.2893   51.3012   74.7459 C   0  0  0  0  0  0  0  0  0  0  0  0
   -1.7801   52.1753   73.8513 N   0  0  0  0  0  0  0  0  0  0  0  0
   -3.0486   51.8306   73.5975 C   0  0  0  0  0  0  0  0  0  0  0  0
   -3.4117   50.7259   74.3506 C   0  0  0  0  0  0  0  0  0  0  0  0
   -2.2755   50.3814   75.1102 C   0  0  0  0  0  0  0  0  0  0  0  0
   -2.1520   49.3270   76.1573 C   0  0  0  0  0  0  0  0  0  0  0  0
   -1.2686   52.9771   73.4195 H   0  0  0  0  0  0  0  0  0  0  0  0
   -4.7749   50.1308   74.2393 C   0  0  0  0  0  0  0  0  0  0  0  0
   -5.9482   50.7798   73.8410 C   0  0  0  0  0  0  0  0  0  0  0  0
   -7.2185   49.6778   73.9246 S   0  0  0  0  0  0  0  0  0  0  0  0
   -6.2498   48.4232   74.4748 C   0  0  0  0  0  0  0  0  0  0  0  0
   -4.9661   48.8261   74.5918 N   0  0  0  0  0  0  0  0  0  0  0  0
   -6.7279   47.0652   74.8179 C   0  0  0  0  0  0  0  0  0  0  0  0
   -7.1496   46.2198   73.8559 C   0  0  0  0  0  0  0  0  0  0  0  0
   -7.6201   44.8424   74.2179 C   0  0  0  0  0  0  0  0  0  0  0  0
   -7.5776   44.5277   75.6268 N   0  0  0  0  0  0  0  0  0  0  0  0
   -7.1184   45.4865   76.5699 C   0  0  0  0  0  0  0  0  0  0  0  0
   -6.7270   46.6555   76.1866 N   0  0  0  0  0  0  0  0  0  0  0  0
   -7.8828   43.5984   75.9502 H   0  0  0  0  0  0  0  0  0  0  0  0
  7  8  1  0
  7 16  2  0
  8  9  1  0
  9 10  2  0
 10 11  1  0
 11 12  1  0
 11 15  2  0
 12 13  1  0
 13 14  2  0
 14 18  1  0
 14 15  1  0
 18 19  2  0
 18 22  1  0
 19 20  1  0
 20 21  1  0
 21 23  1  0
 21 22  2  0
 23 24  2  0
 23 28  1  0
 24 25  1  0
 25 26  1  0
 26 27  1  0
 27 28  2  0
 15 16  1  0
  3  4  1  0
  4  5  2  0
  4  2  1  0
  2  1  1  0
  7  3  1  0
 12 17  1  0
 26 29  1  0
  3  6  1  0
M  ISO 1   1  13
M  END
> <minimizedAffinity>
-6.72676

$$$$
_Inhib_32_acrylamide


 29 32  0  0  0  0  0  0  0  0999 V2000
   -0.5604   45.4893   80.4785 C   0  0  0  0  0  0  0  0  0  0  0  0
    0.7581   45.1363   79.6962 C   0  0  0  0  0  0  0  0  0  0  0  0
    0.8638   47.4238   78.6242 N   0  0  0  0  0  0  0  0  0  0  0  0
    1.0457   46.0630   78.5292 C   0  0  0  0  0  0  0  0  0  0  0  0
    1.3759   45.5526   77.4681 O   0  0  0  0  0  0  0  0  0  0  0  0
    0.6576   47.8128   79.5568 H   0  0  0  0  0  0  0  0  0  0  0  0
    0.7544   48.3178   77.4825 C   0  0  0  0  0  0  0  0  0  0  0  0
    2.0095   48.8973   76.8446 C   0  0  0  0  0  0  0  0  0  0  0  0
    2.0629   50.3027   76.5386 N   0  0  0  0  0  0  0  0  0  0  0  0
    1.2420   50.9187   75.7655 C   0  0  0  0  0  0  0  0  0  0  0  0
    0.0458   50.3032   75.1584 C   0  0  0  0  0  0  0  0  0  0  0  0
   -0.5321   50.8360   74.0687 N   0  0  0  0  0  0  0  0  0  0  0  0
   -1.6037   50.0914   73.7698 C   0  0  0  0  0  0  0  0  0  0  0  0
   -1.7519   49.0635   74.6866 C   0  0  0  0  0  0  0  0  0  0  0  0
   -0.6885   49.2007   75.6015 C   0  0  0  0  0  0  0  0  0  0  0  0
   -0.4316   48.4126   76.8410 C   0  0  0  0  0  0  0  0  0  0  0  0
   -0.2058   51.6748   73.5384 H   0  0  0  0  0  0  0  0  0  0  0  0
   -2.8649   48.0776   74.5669 C   0  0  0  0  0  0  0  0  0  0  0  0
   -3.0254   47.1035   73.5760 C   0  0  0  0  0  0  0  0  0  0  0  0
   -4.4636   46.2790   73.8708 S   0  0  0  0  0  0  0  0  0  0  0  0
   -4.8438   47.1876   75.2291 C   0  0  0  0  0  0  0  0  0  0  0  0
   -3.8877   48.1104   75.4702 N   0  0  0  0  0  0  0  0  0  0  0  0
   -6.0698   47.0308   76.0431 C   0  0  0  0  0  0  0  0  0  0  0  0
   -6.9134   48.0668   76.2247 C   0  0  0  0  0  0  0  0  0  0  0  0
   -8.1581   47.8893   77.0426 C   0  0  0  0  0  0  0  0  0  0  0  0
   -8.3535   46.5661   77.5872 N   0  0  0  0  0  0  0  0  0  0  0  0
   -7.4063   45.5351   77.3435 C   0  0  0  0  0  0  0  0  0  0  0  0
   -6.3552   45.7590   76.6282 N   0  0  0  0  0  0  0  0  0  0  0  0
   -9.1886   46.3685   78.1573 H   0  0  0  0  0  0  0  0  0  0  0  0
  7  8  1  0
  7 16  2  0
  8  9  1  0
  9 10  2  0
 10 11  1  0
 11 12  1  0
 11 15  2  0
 12 13  1  0
 13 14  2  0
 14 18  1  0
 14 15  1  0
 18 19  2  0
 18 22  1  0
 19 20  1  0
 20 21  1  0
 21 23  1  0
 21 22  2  0
 23 24  2  0
 23 28  1  0
 24 25  1  0
 25 26  1  0
 26 27  1  0
 27 28  2  0
 15 16  1  0
  3  4  1  0
  4  5  2  0
  4  2  1  0
  2  1  1  0
  7  3  1  0
 12 17  1  0
 26 29  1  0
  3  6  1  0
M  ISO 1   1  13
M  END
> <minimizedAffinity>
-6.57292

$$$$
_Inhib_32_acrylamide


 29 32  0  0  0  0  0  0  0  0999 V2000
    0.3114   44.5850   82.2545 C   0  0  0  0  0  0  0  0  0  0  0  0
   -0.0118   43.6680   83.4914 C   0  0  0  0  0  0  0  0  0  0  0  0
   -1.6585   41.7724   83.1949 N   0  0  0  0  0  0  0  0  0  0  0  0
   -1.4180   43.0968   83.4807 C   0  0  0  0  0  0  0  0  0  0  0  0
   -2.3461   43.8722   83.6620 O   0  0  0  0  0  0  0  0  0  0  0  0
   -0.8433   41.1448   83.1232 H   0  0  0  0  0  0  0  0  0  0  0  0
   -2.9540   41.2407   82.8027 C   0  0  0  0  0  0  0  0  0  0  0  0
   -3.9768   40.8629   83.8653 C   0  0  0  0  0  0  0  0  0  0  0  0
   -4.6651   39.6026   83.7680 N   0  0  0  0  0  0  0  0  0  0  0  0
   -5.3883   39.2347   82.7716 C   0  0  0  0  0  0  0  0  0  0  0  0
   -5.5349   40.0011   81.5189 C   0  0  0  0  0  0  0  0  0  0  0  0
   -6.5828   39.8023   80.7018 N   0  0  0  0  0  0  0  0  0  0  0  0
   -6.4309   40.6044   79.6408 C   0  0  0  0  0  0  0  0  0  0  0  0
   -5.2548   41.3293   79.7444 C   0  0  0  0  0  0  0  0  0  0  0  0
   -4.6590   40.9341   80.9591 C   0  0  0  0  0  0  0  0  0  0  0  0
   -3.3323   41.3359   81.5085 C   0  0  0  0  0  0  0  0  0  0  0  0
   -7.3814   39.1482   80.8617 H   0  0  0  0  0  0  0  0  0  0  0  0
   -4.8593   42.3118   78.6941 C   0  0  0  0  0  0  0  0  0  0  0  0
   -3.5606   42.6282   78.2817 C   0  0  0  0  0  0  0  0  0  0  0  0
   -3.6559   43.8246   77.1007 S   0  0  0  0  0  0  0  0  0  0  0  0
   -5.3302   43.9148   77.1593 C   0  0  0  0  0  0  0  0  0  0  0  0
   -5.8249   43.0411   78.0626 N   0  0  0  0  0  0  0  0  0  0  0  0
   -6.1620   44.8411   76.3590 C   0  0  0  0  0  0  0  0  0  0  0  0
   -6.5576   44.5102   75.1132 C   0  0  0  0  0  0  0  0  0  0  0  0
   -7.4103   45.4544   74.3188 C   0  0  0  0  0  0  0  0  0  0  0  0
   -7.7489   46.6890   74.9871 N   0  0  0  0  0  0  0  0  0  0  0  0
   -7.2828   46.9517   76.3037 C   0  0  0  0  0  0  0  0  0  0  0  0
   -6.5513   46.0917   76.9297 N   0  0  0  0  0  0  0  0  0  0  0  0
   -8.3348   47.3853   74.5041 H   0  0  0  0  0  0  0  0  0  0  0  0
  7  8  1  0
  7 16  2  0
  8  9  1  0
  9 10  2  0
 10 11  1  0
 11 12  1  0
 11 15  2  0
 12 13  1  0
 13 14  2  0
 14 18  1  0
 14 15  1  0
 18 19  2  0
 18 22  1  0
 19 20  1  0
 20 21  1  0
 21 23  1  0
 21 22  2  0
 23 24  2  0
 23 28  1  0
 24 25  1  0
 25 26  1  0
 26 27  1  0
 27 28  2  0
 15 16  1  0
  3  4  1  0
  4  5  2  0
  4  2  1  0
  2  1  1  0
  7  3  1  0
 12 17  1  0
 26 29  1  0
  3  6  1  0
M  ISO 1   1  13
M  END
> <minimizedAffinity>
-6.24167

$$$$
_Inhib_32_acrylamide


 29 32  0  0  0  0  0  0  0  0999 V2000
   -0.6044   45.5334   80.4616 C   0  0  0  0  0  0  0  0  0  0  0  0
    0.2559   46.0997   79.2723 C   0  0  0  0  0  0  0  0  0  0  0  0
   -0.2214   47.2507   77.0722 N   0  0  0  0  0  0  0  0  0  0  0  0
   -0.4743   47.1203   78.4186 C   0  0  0  0  0  0  0  0  0  0  0  0
   -1.2477   47.8815   78.9824 O   0  0  0  0  0  0  0  0  0  0  0  0
    0.3806   46.5399   76.6295 H   0  0  0  0  0  0  0  0  0  0  0  0
   -0.5839   48.4144   76.2791 C   0  0  0  0  0  0  0  0  0  0  0  0
    0.4336   49.0418   75.3361 C   0  0  0  0  0  0  0  0  0  0  0  0
    0.6096   50.4703   75.3346 N   0  0  0  0  0  0  0  0  0  0  0  0
   -0.3187   51.3253   75.0928 C   0  0  0  0  0  0  0  0  0  0  0  0
   -1.7391   50.9798   74.8899 C   0  0  0  0  0  0  0  0  0  0  0  0
   -2.5733   51.8178   74.2518 N   0  0  0  0  0  0  0  0  0  0  0  0
   -3.7899   51.2591   74.2491 C   0  0  0  0  0  0  0  0  0  0  0  0
   -3.7676   50.0439   74.9140 C   0  0  0  0  0  0  0  0  0  0  0  0
   -2.4383   49.8594   75.3447 C   0  0  0  0  0  0  0  0  0  0  0  0
   -1.8873   48.7613   76.1897 C   0  0  0  0  0  0  0  0  0  0  0  0
   -2.3243   52.7376   73.8239 H   0  0  0  0  0  0  0  0  0  0  0  0
   -4.9980   49.2097   75.0376 C   0  0  0  0  0  0  0  0  0  0  0  0
   -6.2678   49.4993   74.5274 C   0  0  0  0  0  0  0  0  0  0  0  0
   -7.3151   48.2597   74.9762 S   0  0  0  0  0  0  0  0  0  0  0  0
   -6.1365   47.4066   75.8118 C   0  0  0  0  0  0  0  0  0  0  0  0
   -4.9491   48.0472   75.7513 N   0  0  0  0  0  0  0  0  0  0  0  0
   -6.3599   46.1404   76.5448 C   0  0  0  0  0  0  0  0  0  0  0  0
   -5.3777   45.2225   76.6495 C   0  0  0  0  0  0  0  0  0  0  0  0
   -5.6153   43.9492   77.4056 C   0  0  0  0  0  0  0  0  0  0  0  0
   -6.9326   43.8117   77.9816 N   0  0  0  0  0  0  0  0  0  0  0  0
   -7.9059   44.8338   77.8163 C   0  0  0  0  0  0  0  0  0  0  0  0
   -7.6318   45.9062   77.1519 N   0  0  0  0  0  0  0  0  0  0  0  0
   -7.1676   42.9642   78.5180 H   0  0  0  0  0  0  0  0  0  0  0  0
  7  8  1  0
  7 16  2  0
  8  9  1  0
  9 10  2  0
 10 11  1  0
 11 12  1  0
 11 15  2  0
 12 13  1  0
 13 14  2  0
 14 18  1  0
 14 15  1  0
 18 19  2  0
 18 22  1  0
 19 20  1  0
 20 21  1  0
 21 23  1  0
 21 22  2  0
 23 24  2  0
 23 28  1  0
 24 25  1  0
 25 26  1  0
 26 27  1  0
 27 28  2  0
 15 16  1  0
  3  4  1  0
  4  5  2  0
  4  2  1  0
  2  1  1  0
  7  3  1  0
 12 17  1  0
 26 29  1  0
  3  6  1  0
M  ISO 1   1  13
M  END
> <minimizedAffinity>
-6.20074

$$$$
_Inhib_32_acrylamide


 29 32  0  0  0  0  0  0  0  0999 V2000
    0.0760   44.8427   81.1053 C   0  0  0  0  0  0  0  0  0  0  0  0
   -0.1716   44.8935   79.5524 C   0  0  0  0  0  0  0  0  0  0  0  0
   -0.7261   46.9452   78.1826 N   0  0  0  0  0  0  0  0  0  0  0  0
    0.1875   46.2244   78.9173 C   0  0  0  0  0  0  0  0  0  0  0  0
    1.3454   46.6054   79.0157 O   0  0  0  0  0  0  0  0  0  0  0  0
   -1.7054   46.6219   78.1909 H   0  0  0  0  0  0  0  0  0  0  0  0
   -0.3754   48.0069   77.2528 C   0  0  0  0  0  0  0  0  0  0  0  0
    1.0099   48.0414   76.6219 C   0  0  0  0  0  0  0  0  0  0  0  0
    1.7425   49.2799   76.5918 N   0  0  0  0  0  0  0  0  0  0  0  0
    1.3324   50.3636   76.0362 C   0  0  0  0  0  0  0  0  0  0  0  0
   -0.0056   50.5405   75.4391 C   0  0  0  0  0  0  0  0  0  0  0  0
   -0.2404   51.5062   74.5348 N   0  0  0  0  0  0  0  0  0  0  0  0
   -1.5356   51.4469   74.2014 C   0  0  0  0  0  0  0  0  0  0  0  0
   -2.1741   50.4426   74.9105 C   0  0  0  0  0  0  0  0  0  0  0  0
   -1.1877   49.8545   75.7277 C   0  0  0  0  0  0  0  0  0  0  0  0
   -1.3591   48.7917   76.7594 C   0  0  0  0  0  0  0  0  0  0  0  0
    0.4578   52.1806   74.1491 H   0  0  0  0  0  0  0  0  0  0  0  0
   -3.6245   50.1585   74.7090 C   0  0  0  0  0  0  0  0  0  0  0  0
   -4.4876   50.7817   73.8015 C   0  0  0  0  0  0  0  0  0  0  0  0
   -6.0268   50.1282   73.9991 S   0  0  0  0  0  0  0  0  0  0  0  0
   -5.5573   49.0922   75.2325 C   0  0  0  0  0  0  0  0  0  0  0  0
   -4.2399   49.2288   75.4965 N   0  0  0  0  0  0  0  0  0  0  0  0
   -6.4584   48.1715   75.9611 C   0  0  0  0  0  0  0  0  0  0  0  0
   -6.1657   46.8594   76.0644 C   0  0  0  0  0  0  0  0  0  0  0  0
   -7.0827   45.9408   76.8159 C   0  0  0  0  0  0  0  0  0  0  0  0
   -8.2496   46.5695   77.3894 N   0  0  0  0  0  0  0  0  0  0  0  0
   -8.4760   47.9628   77.2259 C   0  0  0  0  0  0  0  0  0  0  0  0
   -7.6425   48.6948   76.5654 N   0  0  0  0  0  0  0  0  0  0  0  0
   -8.9235   46.0014   77.9228 H   0  0  0  0  0  0  0  0  0  0  0  0
  7  8  1  0
  7 16  2  0
  8  9  1  0
  9 10  2  0
 10 11  1  0
 11 12  1  0
 11 15  2  0
 12 13  1  0
 13 14  2  0
 14 18  1  0
 14 15  1  0
 18 19  2  0
 18 22  1  0
 19 20  1  0
 20 21  1  0
 21 23  1  0
 21 22  2  0
 23 24  2  0
 23 28  1  0
 24 25  1  0
 25 26  1  0
 26 27  1  0
 27 28  2  0
 15 16  1  0
  3  4  1  0
  4  5  2  0
  4  2  1  0
  2  1  1  0
  7  3  1  0
 12 17  1  0
 26 29  1  0
  3  6  1  0
M  ISO 1   1  13
M  END
> <minimizedAffinity>
-6.11805

$$$$
_Inhib_32_acrylamide


 29 32  0  0  0  0  0  0  0  0999 V2000
    0.2906   44.6151   81.7906 C   0  0  0  0  0  0  0  0  0  0  0  0
   -0.2033   43.8296   80.5200 C   0  0  0  0  0  0  0  0  0  0  0  0
   -0.4449   44.9900   78.2866 N   0  0  0  0  0  0  0  0  0  0  0  0
   -0.9630   44.6880   79.5252 C   0  0  0  0  0  0  0  0  0  0  0  0
   -2.0267   45.1697   79.8885 O   0  0  0  0  0  0  0  0  0  0  0  0
    0.4165   44.5015   77.9986 H   0  0  0  0  0  0  0  0  0  0  0  0
   -0.9158   46.0779   77.4443 C   0  0  0  0  0  0  0  0  0  0  0  0
    0.0678   46.8519   76.5774 C   0  0  0  0  0  0  0  0  0  0  0  0
    0.0182   48.2903   76.5634 N   0  0  0  0  0  0  0  0  0  0  0  0
   -1.0081   48.9875   76.2293 C   0  0  0  0  0  0  0  0  0  0  0  0
   -2.3348   48.4221   75.9157 C   0  0  0  0  0  0  0  0  0  0  0  0
   -3.2322   49.1151   75.1948 N   0  0  0  0  0  0  0  0  0  0  0  0
   -4.3421   48.3722   75.1017 C   0  0  0  0  0  0  0  0  0  0  0  0
   -4.1871   47.1793   75.7889 C   0  0  0  0  0  0  0  0  0  0  0  0
   -2.8867   47.2083   76.3320 C   0  0  0  0  0  0  0  0  0  0  0  0
   -2.2450   46.2152   77.2404 C   0  0  0  0  0  0  0  0  0  0  0  0
   -3.0944   50.0601   74.7717 H   0  0  0  0  0  0  0  0  0  0  0  0
   -5.2782   46.1630   75.8257 C   0  0  0  0  0  0  0  0  0  0  0  0
   -6.0142   45.6763   74.7403 C   0  0  0  0  0  0  0  0  0  0  0  0
   -7.1515   44.5784   75.3201 S   0  0  0  0  0  0  0  0  0  0  0  0
   -6.6886   44.7645   76.9220 C   0  0  0  0  0  0  0  0  0  0  0  0
   -5.6726   45.6481   77.0268 N   0  0  0  0  0  0  0  0  0  0  0  0
   -7.3182   44.0834   78.0753 C   0  0  0  0  0  0  0  0  0  0  0  0
   -8.5642   44.4114   78.4729 C   0  0  0  0  0  0  0  0  0  0  0  0
   -9.1935   43.7040   79.6361 C   0  0  0  0  0  0  0  0  0  0  0  0
   -8.3746   42.6882   80.2554 N   0  0  0  0  0  0  0  0  0  0  0  0
   -7.0688   42.4130   79.7670 C   0  0  0  0  0  0  0  0  0  0  0  0
   -6.5899   43.0618   78.7589 N   0  0  0  0  0  0  0  0  0  0  0  0
   -8.7421   42.1580   81.0586 H   0  0  0  0  0  0  0  0  0  0  0  0
  7  8  1  0
  7 16  2  0
  8  9  1  0
  9 10  2  0
 10 11  1  0
 11 12  1  0
 11 15  2  0
 12 13  1  0
 13 14  2  0
 14 18  1  0
 14 15  1  0
 18 19  2  0
 18 22  1  0
 19 20  1  0
 20 21  1  0
 21 23  1  0
 21 22  2  0
 23 24  2  0
 23 28  1  0
 24 25  1  0
 25 26  1  0
 26 27  1  0
 27 28  2  0
 15 16  1  0
  3  4  1  0
  4  5  2  0
  4  2  1  0
  2  1  1  0
  7  3  1  0
 12 17  1  0
 26 29  1  0
  3  6  1  0
M  ISO 1   1  13
M  END
> <minimizedAffinity>
-5.98540

$$$$
_Inhib_32_acrylamide


 29 32  0  0  0  0  0  0  0  0999 V2000
    0.3145   44.5844   82.1340 C   0  0  0  0  0  0  0  0  0  0  0  0
   -0.6206   43.3409   81.9003 C   0  0  0  0  0  0  0  0  0  0  0  0
   -1.3766   42.7932   79.5505 N   0  0  0  0  0  0  0  0  0  0  0  0
   -1.5621   43.4946   80.7198 C   0  0  0  0  0  0  0  0  0  0  0  0
   -2.4562   44.3239   80.8121 O   0  0  0  0  0  0  0  0  0  0  0  0
   -0.6573   42.0542   79.5473 H   0  0  0  0  0  0  0  0  0  0  0  0
   -1.9848   43.1462   78.2776 C   0  0  0  0  0  0  0  0  0  0  0  0
   -1.3115   42.7435   76.9728 C   0  0  0  0  0  0  0  0  0  0  0  0
   -1.1735   43.7144   75.9192 N   0  0  0  0  0  0  0  0  0  0  0  0
   -2.1488   44.3380   75.3615 C   0  0  0  0  0  0  0  0  0  0  0  0
   -3.5570   44.2400   75.7922 C   0  0  0  0  0  0  0  0  0  0  0  0
   -4.5616   44.5631   74.9605 N   0  0  0  0  0  0  0  0  0  0  0  0
   -5.7108   44.4103   75.6300 C   0  0  0  0  0  0  0  0  0  0  0  0
   -5.4645   44.0016   76.9306 C   0  0  0  0  0  0  0  0  0  0  0  0
   -4.0637   43.8993   77.0485 C   0  0  0  0  0  0  0  0  0  0  0  0
   -3.2615   43.5902   78.2668 C   0  0  0  0  0  0  0  0  0  0  0  0
   -4.4719   44.8706   73.9663 H   0  0  0  0  0  0  0  0  0  0  0  0
   -6.5832   43.7435   77.8829 C   0  0  0  0  0  0  0  0  0  0  0  0
   -7.8280   44.3807   77.9140 C   0  0  0  0  0  0  0  0  0  0  0  0
   -8.7119   43.7554   79.2035 S   0  0  0  0  0  0  0  0  0  0  0  0
   -7.4903   42.7128   79.6890 C   0  0  0  0  0  0  0  0  0  0  0  0
   -6.4151   42.8261   78.8796 N   0  0  0  0  0  0  0  0  0  0  0  0
   -7.5562   41.8096   80.8595 C   0  0  0  0  0  0  0  0  0  0  0  0
   -6.6504   41.9031   81.8538 C   0  0  0  0  0  0  0  0  0  0  0  0
   -6.7372   40.9885   83.0394 C   0  0  0  0  0  0  0  0  0  0  0  0
   -7.8319   40.0470   83.0118 N   0  0  0  0  0  0  0  0  0  0  0  0
   -8.7378   40.0209   81.9172 C   0  0  0  0  0  0  0  0  0  0  0  0
   -8.6030   40.8396   80.9281 N   0  0  0  0  0  0  0  0  0  0  0  0
   -7.9569   39.3887   83.7943 H   0  0  0  0  0  0  0  0  0  0  0  0
  7  8  1  0
  7 16  2  0
  8  9  1  0
  9 10  2  0
 10 11  1  0
 11 12  1  0
 11 15  2  0
 12 13  1  0
 13 14  2  0
 14 18  1  0
 14 15  1  0
 18 19  2  0
 18 22  1  0
 19 20  1  0
 20 21  1  0
 21 23  1  0
 21 22  2  0
 23 24  2  0
 23 28  1  0
 24 25  1  0
 25 26  1  0
 26 27  1  0
 27 28  2  0
 15 16  1  0
  3  4  1  0
  4  5  2  0
  4  2  1  0
  2  1  1  0
  7  3  1  0
 12 17  1  0
 26 29  1  0
  3  6  1  0
M  ISO 1   1  13
M  END
> <minimizedAffinity>
-5.97085

$$$$
_Inhib_32_acrylamide


 29 32  0  0  0  0  0  0  0  0999 V2000
   -1.7810   46.6964   80.9126 C   0  0  0  0  0  0  0  0  0  0  0  0
   -1.6624   46.1216   79.4529 C   0  0  0  0  0  0  0  0  0  0  0  0
   -1.2614   43.6965   80.0456 N   0  0  0  0  0  0  0  0  0  0  0  0
   -1.9800   44.6411   79.3490 C   0  0  0  0  0  0  0  0  0  0  0  0
   -2.8534   44.3025   78.5628 O   0  0  0  0  0  0  0  0  0  0  0  0
   -0.5877   44.0342   80.7496 H   0  0  0  0  0  0  0  0  0  0  0  0
   -1.2481   42.2777   79.7271 C   0  0  0  0  0  0  0  0  0  0  0  0
    0.0560   41.4943   79.7895 C   0  0  0  0  0  0  0  0  0  0  0  0
    0.4041   40.6132   78.7059 N   0  0  0  0  0  0  0  0  0  0  0  0
   -0.3098   39.6228   78.3050 C   0  0  0  0  0  0  0  0  0  0  0  0
   -1.6552   39.3017   78.8198 C   0  0  0  0  0  0  0  0  0  0  0  0
   -2.1749   38.0701   78.6840 N   0  0  0  0  0  0  0  0  0  0  0  0
   -3.4062   38.0866   79.2092 C   0  0  0  0  0  0  0  0  0  0  0  0
   -3.7165   39.3521   79.6799 C   0  0  0  0  0  0  0  0  0  0  0  0
   -2.5861   40.1528   79.4200 C   0  0  0  0  0  0  0  0  0  0  0  0
   -2.4251   41.6189   79.6389 C   0  0  0  0  0  0  0  0  0  0  0  0
   -1.7065   37.2408   78.2552 H   0  0  0  0  0  0  0  0  0  0  0  0
   -5.0296   39.6329   80.3294 C   0  0  0  0  0  0  0  0  0  0  0  0
   -5.7380   38.7941   81.1962 C   0  0  0  0  0  0  0  0  0  0  0  0
   -7.1781   39.5593   81.6156 S   0  0  0  0  0  0  0  0  0  0  0  0
   -6.8677   40.9160   80.6786 C   0  0  0  0  0  0  0  0  0  0  0  0
   -5.6770   40.8020   80.0515 N   0  0  0  0  0  0  0  0  0  0  0  0
   -7.7781   42.0729   80.5265 C   0  0  0  0  0  0  0  0  0  0  0  0
   -8.5276   42.5005   81.5626 C   0  0  0  0  0  0  0  0  0  0  0  0
   -9.4369   43.6817   81.3965 C   0  0  0  0  0  0  0  0  0  0  0  0
   -9.4293   44.2850   80.0843 N   0  0  0  0  0  0  0  0  0  0  0  0
   -8.6054   43.7620   79.0512 C   0  0  0  0  0  0  0  0  0  0  0  0
   -7.8454   42.7406   79.2653 N   0  0  0  0  0  0  0  0  0  0  0  0
  -10.0268   45.1030   79.8967 H   0  0  0  0  0  0  0  0  0  0  0  0
  7  8  1  0
  7 16  2  0
  8  9  1  0
  9 10  2  0
 10 11  1  0
 11 12  1  0
 11 15  2  0
 12 13  1  0
 13 14  2  0
 14 18  1  0
 14 15  1  0
 18 19  2  0
 18 22  1  0
 19 20  1  0
 20 21  1  0
 21 23  1  0
 21 22  2  0
 23 24  2  0
 23 28  1  0
 24 25  1  0
 25 26  1  0
 26 27  1  0
 27 28  2  0
 15 16  1  0
  3  4  1  0
  4  5  2  0
  4  2  1  0
  2  1  1  0
  7  3  1  0
 12 17  1  0
 26 29  1  0
  3  6  1  0
M  ISO 1   1  13
M  END
> <minimizedAffinity>
-5.94938

$$$$
_Inhib_32_acrylamide


 29 32  0  0  0  0  0  0  0  0999 V2000
   -0.5641   45.4930   80.4771 C   0  0  0  0  0  0  0  0  0  0  0  0
    0.6476   44.6470   79.9372 C   0  0  0  0  0  0  0  0  0  0  0  0
    2.1785   46.4460   79.0355 N   0  0  0  0  0  0  0  0  0  0  0  0
    1.4156   45.3220   78.8155 C   0  0  0  0  0  0  0  0  0  0  0  0
    1.2755   44.8773   77.6850 O   0  0  0  0  0  0  0  0  0  0  0  0
    2.3256   46.7379   80.0136 H   0  0  0  0  0  0  0  0  0  0  0  0
    2.6278   47.3496   77.9884 C   0  0  0  0  0  0  0  0  0  0  0  0
    3.9188   47.0615   77.2345 C   0  0  0  0  0  0  0  0  0  0  0  0
    4.8700   48.1222   77.0299 N   0  0  0  0  0  0  0  0  0  0  0  0
    4.6210   49.2259   76.4208 C   0  0  0  0  0  0  0  0  0  0  0  0
    3.2871   49.6276   75.9337 C   0  0  0  0  0  0  0  0  0  0  0  0
    3.1494   50.5570   74.9732 N   0  0  0  0  0  0  0  0  0  0  0  0
    1.8393   50.7372   74.7645 C   0  0  0  0  0  0  0  0  0  0  0  0
    1.0971   49.9326   75.6136 C   0  0  0  0  0  0  0  0  0  0  0  0
    2.0318   49.2149   76.3868 C   0  0  0  0  0  0  0  0  0  0  0  0
    1.7681   48.2810   77.5189 C   0  0  0  0  0  0  0  0  0  0  0  0
    3.9201   51.0492   74.4684 H   0  0  0  0  0  0  0  0  0  0  0  0
   -0.3939   49.9334   75.5695 C   0  0  0  0  0  0  0  0  0  0  0  0
   -1.2318   51.0405   75.4000 C   0  0  0  0  0  0  0  0  0  0  0  0
   -2.8291   50.5117   75.4648 S   0  0  0  0  0  0  0  0  0  0  0  0
   -2.4114   48.9068   75.7195 C   0  0  0  0  0  0  0  0  0  0  0  0
   -1.0691   48.7610   75.7505 N   0  0  0  0  0  0  0  0  0  0  0  0
   -3.3713   47.7975   75.9154 C   0  0  0  0  0  0  0  0  0  0  0  0
   -3.0154   46.6911   76.5989 C   0  0  0  0  0  0  0  0  0  0  0  0
   -4.0029   45.5802   76.7993 C   0  0  0  0  0  0  0  0  0  0  0  0
   -5.3063   45.8026   76.2183 N   0  0  0  0  0  0  0  0  0  0  0  0
   -5.5893   47.0026   75.5115 C   0  0  0  0  0  0  0  0  0  0  0  0
   -4.6895   47.9186   75.3777 N   0  0  0  0  0  0  0  0  0  0  0  0
   -6.0376   45.0840   76.3184 H   0  0  0  0  0  0  0  0  0  0  0  0
  7  8  1  0
  7 16  2  0
  8  9  1  0
  9 10  2  0
 10 11  1  0
 11 12  1  0
 11 15  2  0
 12 13  1  0
 13 14  2  0
 14 18  1  0
 14 15  1  0
 18 19  2  0
 18 22  1  0
 19 20  1  0
 20 21  1  0
 21 23  1  0
 21 22  2  0
 23 24  2  0
 23 28  1  0
 24 25  1  0
 25 26  1  0
 26 27  1  0
 27 28  2  0
 15 16  1  0
  3  4  1  0
  4  5  2  0
  4  2  1  0
  2  1  1  0
  7  3  1  0
 12 17  1  0
 26 29  1  0
  3  6  1  0
M  ISO 1   1  13
M  END
> <minimizedAffinity>
-5.79688

$$$$
_Inhib_32_acrylamide


 29 32  0  0  0  0  0  0  0  0999 V2000
    0.2965   44.5964   82.4283 C   0  0  0  0  0  0  0  0  0  0  0  0
    0.4611   43.6323   81.1959 C   0  0  0  0  0  0  0  0  0  0  0  0
    1.5394   45.2424   79.5718 N   0  0  0  0  0  0  0  0  0  0  0  0
    0.5322   44.3503   79.8606 C   0  0  0  0  0  0  0  0  0  0  0  0
   -0.3821   44.1674   79.0693 O   0  0  0  0  0  0  0  0  0  0  0  0
    2.3245   45.3064   80.2375 H   0  0  0  0  0  0  0  0  0  0  0  0
    1.4806   46.2273   78.5035 C   0  0  0  0  0  0  0  0  0  0  0  0
    2.7664   46.7787   77.9028 C   0  0  0  0  0  0  0  0  0  0  0  0
    2.9033   48.1979   77.7060 N   0  0  0  0  0  0  0  0  0  0  0  0
    2.1186   48.9199   76.9891 C   0  0  0  0  0  0  0  0  0  0  0  0
    0.8858   48.4260   76.3453 C   0  0  0  0  0  0  0  0  0  0  0  0
    0.3378   49.0753   75.3044 N   0  0  0  0  0  0  0  0  0  0  0  0
   -0.7775   48.4215   74.9570 C   0  0  0  0  0  0  0  0  0  0  0  0
   -0.9846   47.3361   75.7927 C   0  0  0  0  0  0  0  0  0  0  0  0
    0.0879   47.3381   76.7073 C   0  0  0  0  0  0  0  0  0  0  0  0
    0.3006   46.4423   77.8803 C   0  0  0  0  0  0  0  0  0  0  0  0
    0.7124   49.9317   74.8382 H   0  0  0  0  0  0  0  0  0  0  0  0
   -2.1551   46.4308   75.6056 C   0  0  0  0  0  0  0  0  0  0  0  0
   -2.2288   45.3090   74.7733 C   0  0  0  0  0  0  0  0  0  0  0  0
   -3.7782   44.6607   74.8927 S   0  0  0  0  0  0  0  0  0  0  0  0
   -4.3094   45.8248   75.9780 C   0  0  0  0  0  0  0  0  0  0  0  0
   -3.3219   46.7019   76.2600 N   0  0  0  0  0  0  0  0  0  0  0  0
   -5.6781   45.9090   76.5348 C   0  0  0  0  0  0  0  0  0  0  0  0
   -6.2574   44.8332   77.1049 C   0  0  0  0  0  0  0  0  0  0  0  0
   -7.6406   44.9372   77.6753 C   0  0  0  0  0  0  0  0  0  0  0  0
   -8.2579   46.2377   77.5602 N   0  0  0  0  0  0  0  0  0  0  0  0
   -7.5688   47.3145   76.9396 C   0  0  0  0  0  0  0  0  0  0  0  0
   -6.3772   47.1533   76.4699 N   0  0  0  0  0  0  0  0  0  0  0  0
   -9.2070   46.3854   77.9327 H   0  0  0  0  0  0  0  0  0  0  0  0
  7  8  1  0
  7 16  2  0
  8  9  1  0
  9 10  2  0
 10 11  1  0
 11 12  1  0
 11 15  2  0
 12 13  1  0
 13 14  2  0
 14 18  1  0
 14 15  1  0
 18 19  2  0
 18 22  1  0
 19 20  1  0
 20 21  1  0
 21 23  1  0
 21 22  2  0
 23 24  2  0
 23 28  1  0
 24 25  1  0
 25 26  1  0
 26 27  1  0
 27 28  2  0
 15 16  1  0
  3  4  1  0
  4  5  2  0
  4  2  1  0
  2  1  1  0
  7  3  1  0
 12 17  1  0
 26 29  1  0
  3  6  1  0
M  ISO 1   1  13
M  END
> <minimizedAffinity>
-5.73620

$$$$
_Inhib_32_acrylamide


 29 32  0  0  0  0  0  0  0  0999 V2000
    0.2909   44.6010   82.4708 C   0  0  0  0  0  0  0  0  0  0  0  0
   -0.3307   43.6880   83.5911 C   0  0  0  0  0  0  0  0  0  0  0  0
   -0.1549   41.3262   82.7056 N   0  0  0  0  0  0  0  0  0  0  0  0
   -0.9371   42.3995   83.0661 C   0  0  0  0  0  0  0  0  0  0  0  0
   -2.1484   42.3693   82.9007 O   0  0  0  0  0  0  0  0  0  0  0  0
    0.8501   41.3716   82.9327 H   0  0  0  0  0  0  0  0  0  0  0  0
   -0.6064   40.2283   81.8657 C   0  0  0  0  0  0  0  0  0  0  0  0
    0.2560   38.9834   81.7088 C   0  0  0  0  0  0  0  0  0  0  0  0
    0.4797   38.4390   80.3954 N   0  0  0  0  0  0  0  0  0  0  0  0
   -0.4454   38.0436   79.5959 C   0  0  0  0  0  0  0  0  0  0  0  0
   -1.8909   38.1910   79.8545 C   0  0  0  0  0  0  0  0  0  0  0  0
   -2.7919   37.4231   79.2190 N   0  0  0  0  0  0  0  0  0  0  0  0
   -4.0099   37.8020   79.6252 C   0  0  0  0  0  0  0  0  0  0  0  0
   -3.9172   38.8505   80.5259 C   0  0  0  0  0  0  0  0  0  0  0  0
   -2.5411   39.1182   80.6723 C   0  0  0  0  0  0  0  0  0  0  0  0
   -1.8927   40.2123   81.4506 C   0  0  0  0  0  0  0  0  0  0  0  0
   -2.5875   36.6596   78.5360 H   0  0  0  0  0  0  0  0  0  0  0  0
   -5.1369   39.4474   81.1430 C   0  0  0  0  0  0  0  0  0  0  0  0
   -5.8058   39.0033   82.2885 C   0  0  0  0  0  0  0  0  0  0  0  0
   -7.1440   39.9941   82.5389 S   0  0  0  0  0  0  0  0  0  0  0  0
   -6.8444   40.9406   81.1863 C   0  0  0  0  0  0  0  0  0  0  0  0
   -5.7332   40.5195   80.5444 N   0  0  0  0  0  0  0  0  0  0  0  0
   -7.6899   42.0664   80.7300 C   0  0  0  0  0  0  0  0  0  0  0  0
   -7.5830   42.5429   79.4732 C   0  0  0  0  0  0  0  0  0  0  0  0
   -8.4550   43.6766   79.0216 C   0  0  0  0  0  0  0  0  0  0  0  0
   -9.3740   44.1802   80.0154 N   0  0  0  0  0  0  0  0  0  0  0  0
   -9.4136   43.6145   81.3185 C   0  0  0  0  0  0  0  0  0  0  0  0
   -8.6326   42.6377   81.6389 N   0  0  0  0  0  0  0  0  0  0  0  0
  -10.0071   44.9569   79.7761 H   0  0  0  0  0  0  0  0  0  0  0  0
  7  8  1  0
  7 16  2  0
  8  9  1  0
  9 10  2  0
 10 11  1  0
 11 12  1  0
 11 15  2  0
 12 13  1  0
 13 14  2  0
 14 18  1  0
 14 15  1  0
 18 19  2  0
 18 22  1  0
 19 20  1  0
 20 21  1  0
 21 23  1  0
 21 22  2  0
 23 24  2  0
 23 28  1  0
 24 25  1  0
 25 26  1  0
 26 27  1  0
 27 28  2  0
 15 16  1  0
  3  4  1  0
  4  5  2  0
  4  2  1  0
  2  1  1  0
  7  3  1  0
 12 17  1  0
 26 29  1  0
  3  6  1  0
M  ISO 1   1  13
M  END
> <minimizedAffinity>
-5.72025

$$$$
_Inhib_32_acrylamide


 29 32  0  0  0  0  0  0  0  0999 V2000
   -1.5241   46.4460   80.6401 C   0  0  0  0  0  0  0  0  0  0  0  0
   -0.8717   46.3079   79.2152 C   0  0  0  0  0  0  0  0  0  0  0  0
   -1.6385   43.9985   78.5283 N   0  0  0  0  0  0  0  0  0  0  0  0
   -0.6101   44.8726   78.7968 C   0  0  0  0  0  0  0  0  0  0  0  0
    0.5515   44.4905   78.7775 O   0  0  0  0  0  0  0  0  0  0  0  0
   -2.5935   44.3855   78.4850 H   0  0  0  0  0  0  0  0  0  0  0  0
   -1.4959   42.5518   78.4908 C   0  0  0  0  0  0  0  0  0  0  0  0
   -0.1129   41.9195   78.5655 C   0  0  0  0  0  0  0  0  0  0  0  0
    0.2366   40.8720   77.6423 N   0  0  0  0  0  0  0  0  0  0  0  0
   -0.3954   39.7600   77.5184 C   0  0  0  0  0  0  0  0  0  0  0  0
   -1.6482   39.4290   78.2247 C   0  0  0  0  0  0  0  0  0  0  0  0
   -2.0386   38.1535   78.3856 N   0  0  0  0  0  0  0  0  0  0  0  0
   -3.2149   38.1641   79.0247 C   0  0  0  0  0  0  0  0  0  0  0  0
   -3.6215   39.4653   79.2717 C   0  0  0  0  0  0  0  0  0  0  0  0
   -2.6127   40.2960   78.7438 C   0  0  0  0  0  0  0  0  0  0  0  0
   -2.5963   41.7845   78.6566 C   0  0  0  0  0  0  0  0  0  0  0  0
   -1.5198   37.3004   78.0784 H   0  0  0  0  0  0  0  0  0  0  0  0
   -4.8974   39.7515   79.9896 C   0  0  0  0  0  0  0  0  0  0  0  0
   -5.5549   38.9216   80.9037 C   0  0  0  0  0  0  0  0  0  0  0  0
   -6.9712   39.6893   81.3934 S   0  0  0  0  0  0  0  0  0  0  0  0
   -6.7161   41.0356   80.4252 C   0  0  0  0  0  0  0  0  0  0  0  0
   -5.5617   40.9163   79.7345 N   0  0  0  0  0  0  0  0  0  0  0  0
   -7.6362   42.1892   80.3105 C   0  0  0  0  0  0  0  0  0  0  0  0
   -7.7417   42.8739   79.1538 C   0  0  0  0  0  0  0  0  0  0  0  0
   -8.6873   44.0335   79.0493 C   0  0  0  0  0  0  0  0  0  0  0  0
   -9.4357   44.3277   80.2489 N   0  0  0  0  0  0  0  0  0  0  0  0
   -9.2553   43.5499   81.4245 C   0  0  0  0  0  0  0  0  0  0  0  0
   -8.4227   42.5635   81.4430 N   0  0  0  0  0  0  0  0  0  0  0  0
  -10.1072   45.1090   80.2512 H   0  0  0  0  0  0  0  0  0  0  0  0
  7  8  1  0
  7 16  2  0
  8  9  1  0
  9 10  2  0
 10 11  1  0
 11 12  1  0
 11 15  2  0
 12 13  1  0
 13 14  2  0
 14 18  1  0
 14 15  1  0
 18 19  2  0
 18 22  1  0
 19 20  1  0
 20 21  1  0
 21 23  1  0
 21 22  2  0
 23 24  2  0
 23 28  1  0
 24 25  1  0
 25 26  1  0
 26 27  1  0
 27 28  2  0
 15 16  1  0
  3  4  1  0
  4  5  2  0
  4  2  1  0
  2  1  1  0
  7  3  1  0
 12 17  1  0
 26 29  1  0
  3  6  1  0
M  ISO 1   1  13
M  END
> <minimizedAffinity>
-5.58419

$$$$
_Inhib_32_acrylamide


 29 32  0  0  0  0  0  0  0  0999 V2000
    0.3112   44.5902   82.0048 C   0  0  0  0  0  0  0  0  0  0  0  0
    0.1546   43.8066   80.6496 C   0  0  0  0  0  0  0  0  0  0  0  0
   -0.4035   44.8612   78.4204 N   0  0  0  0  0  0  0  0  0  0  0  0
    0.5099   44.6262   79.4226 C   0  0  0  0  0  0  0  0  0  0  0  0
    1.6650   45.0127   79.3140 O   0  0  0  0  0  0  0  0  0  0  0  0
   -1.3810   44.5804   78.5912 H   0  0  0  0  0  0  0  0  0  0  0  0
   -0.0534   45.2985   77.0784 C   0  0  0  0  0  0  0  0  0  0  0  0
    0.7646   44.3912   76.1697 C   0  0  0  0  0  0  0  0  0  0  0  0
    1.8835   44.9369   75.4472 N   0  0  0  0  0  0  0  0  0  0  0  0
    1.8150   45.9107   74.6116 C   0  0  0  0  0  0  0  0  0  0  0  0
    0.5953   46.6980   74.3459 C   0  0  0  0  0  0  0  0  0  0  0  0
    0.4578   47.4037   73.2109 N   0  0  0  0  0  0  0  0  0  0  0  0
   -0.7211   48.0359   73.2637 C   0  0  0  0  0  0  0  0  0  0  0  0
   -1.3650   47.7637   74.4598 C   0  0  0  0  0  0  0  0  0  0  0  0
   -0.5096   46.9022   75.1758 C   0  0  0  0  0  0  0  0  0  0  0  0
   -0.6764   46.3818   76.5632 C   0  0  0  0  0  0  0  0  0  0  0  0
    1.1390   47.4498   72.4203 H   0  0  0  0  0  0  0  0  0  0  0  0
   -2.7093   48.3363   74.7598 C   0  0  0  0  0  0  0  0  0  0  0  0
   -3.1235   49.6589   74.5710 C   0  0  0  0  0  0  0  0  0  0  0  0
   -4.7146   49.7976   75.1043 S   0  0  0  0  0  0  0  0  0  0  0  0
   -4.8233   48.1893   75.5696 C   0  0  0  0  0  0  0  0  0  0  0  0
   -3.6658   47.5398   75.3200 N   0  0  0  0  0  0  0  0  0  0  0  0
   -6.0081   47.5621   76.1968 C   0  0  0  0  0  0  0  0  0  0  0  0
   -6.0569   46.2298   76.3980 C   0  0  0  0  0  0  0  0  0  0  0  0
   -7.2595   45.6101   77.0455 C   0  0  0  0  0  0  0  0  0  0  0  0
   -8.3056   46.5351   77.4142 N   0  0  0  0  0  0  0  0  0  0  0  0
   -8.1655   47.9262   77.1597 C   0  0  0  0  0  0  0  0  0  0  0  0
   -7.1003   48.3913   76.5980 N   0  0  0  0  0  0  0  0  0  0  0  0
   -9.1611   46.1820   77.8667 H   0  0  0  0  0  0  0  0  0  0  0  0
  7  8  1  0
  7 16  2  0
  8  9  1  0
  9 10  2  0
 10 11  1  0
 11 12  1  0
 11 15  2  0
 12 13  1  0
 13 14  2  0
 14 18  1  0
 14 15  1  0
 18 19  2  0
 18 22  1  0
 19 20  1  0
 20 21  1  0
 21 23  1  0
 21 22  2  0
 23 24  2  0
 23 28  1  0
 24 25  1  0
 25 26  1  0
 26 27  1  0
 27 28  2  0
 15 16  1  0
  3  4  1  0
  4  5  2  0
  4  2  1  0
  2  1  1  0
  7  3  1  0
 12 17  1  0
 26 29  1  0
  3  6  1  0
M  ISO 1   1  13
M  END
> <minimizedAffinity>
-5.50537

$$$$
_Inhib_32_acrylamide


 29 32  0  0  0  0  0  0  0  0999 V2000
   -0.4001   45.3279   80.5624 C   0  0  0  0  0  0  0  0  0  0  0  0
    0.7335   44.2602   80.3382 C   0  0  0  0  0  0  0  0  0  0  0  0
   -0.4152   42.9006   82.1340 N   0  0  0  0  0  0  0  0  0  0  0  0
    0.5760   43.0110   81.1857 C   0  0  0  0  0  0  0  0  0  0  0  0
    1.4096   42.1264   81.0519 O   0  0  0  0  0  0  0  0  0  0  0  0
   -1.1361   43.6377   82.1577 H   0  0  0  0  0  0  0  0  0  0  0  0
   -0.4093   41.9296   83.2166 C   0  0  0  0  0  0  0  0  0  0  0  0
    0.3574   42.2219   84.4991 C   0  0  0  0  0  0  0  0  0  0  0  0
    1.2082   41.2064   85.0615 N   0  0  0  0  0  0  0  0  0  0  0  0
    0.8178   40.0362   85.4211 C   0  0  0  0  0  0  0  0  0  0  0  0
   -0.5443   39.5091   85.2087 C   0  0  0  0  0  0  0  0  0  0  0  0
   -1.0146   38.4852   85.9405 N   0  0  0  0  0  0  0  0  0  0  0  0
   -2.2498   38.2064   85.5059 C   0  0  0  0  0  0  0  0  0  0  0  0
   -2.5955   39.0421   84.4565 C   0  0  0  0  0  0  0  0  0  0  0  0
   -1.4861   39.8863   84.2486 C   0  0  0  0  0  0  0  0  0  0  0  0
   -1.2922   40.9068   83.1788 C   0  0  0  0  0  0  0  0  0  0  0  0
   -0.5167   37.9946   86.7167 H   0  0  0  0  0  0  0  0  0  0  0  0
   -3.9327   38.9464   83.8025 C   0  0  0  0  0  0  0  0  0  0  0  0
   -4.7415   37.8098   83.6995 C   0  0  0  0  0  0  0  0  0  0  0  0
   -6.1266   38.2209   82.8348 S   0  0  0  0  0  0  0  0  0  0  0  0
   -5.6537   39.8144   82.6059 C   0  0  0  0  0  0  0  0  0  0  0  0
   -4.4553   40.0454   83.1843 N   0  0  0  0  0  0  0  0  0  0  0  0
   -6.4200   40.8303   81.8502 C   0  0  0  0  0  0  0  0  0  0  0  0
   -7.5108   41.4118   82.3888 C   0  0  0  0  0  0  0  0  0  0  0  0
   -8.2703   42.4483   81.6153 C   0  0  0  0  0  0  0  0  0  0  0  0
   -7.7434   42.7470   80.3042 N   0  0  0  0  0  0  0  0  0  0  0  0
   -6.5863   42.0796   79.8191 C   0  0  0  0  0  0  0  0  0  0  0  0
   -5.9813   41.1966   80.5408 N   0  0  0  0  0  0  0  0  0  0  0  0
   -8.2113   43.4515   79.7160 H   0  0  0  0  0  0  0  0  0  0  0  0
  7  8  1  0
  7 16  2  0
  8  9  1  0
  9 10  2  0
 10 11  1  0
 11 12  1  0
 11 15  2  0
 12 13  1  0
 13 14  2  0
 14 18  1  0
 14 15  1  0
 18 19  2  0
 18 22  1  0
 19 20  1  0
 20 21  1  0
 21 23  1  0
 21 22  2  0
 23 24  2  0
 23 28  1  0
 24 25  1  0
 25 26  1  0
 26 27  1  0
 27 28  2  0
 15 16  1  0
  3  4  1  0
  4  5  2  0
  4  2  1  0
  2  1  1  0
  7  3  1  0
 12 17  1  0
 26 29  1  0
  3  6  1  0
M  ISO 1   1  13
M  END
> <minimizedAffinity>
-5.49544

$$$$
_Inhib_32_acrylamide


 29 32  0  0  0  0  0  0  0  0999 V2000
    0.3144   44.5849   82.1125 C   0  0  0  0  0  0  0  0  0  0  0  0
    0.0396   43.5881   83.2983 C   0  0  0  0  0  0  0  0  0  0  0  0
    1.2654   42.0204   84.8580 N   0  0  0  0  0  0  0  0  0  0  0  0
    1.2989   43.0697   83.9682 C   0  0  0  0  0  0  0  0  0  0  0  0
    2.3440   43.6658   83.7491 O   0  0  0  0  0  0  0  0  0  0  0  0
    0.3776   41.5043   84.9527 H   0  0  0  0  0  0  0  0  0  0  0  0
    2.3270   41.7131   85.8032 C   0  0  0  0  0  0  0  0  0  0  0  0
    3.6784   41.2247   85.3000 C   0  0  0  0  0  0  0  0  0  0  0  0
    4.2976   40.0868   85.9272 N   0  0  0  0  0  0  0  0  0  0  0  0
    4.6000   40.0083   87.1737 C   0  0  0  0  0  0  0  0  0  0  0  0
    4.2563   41.0301   88.1816 C   0  0  0  0  0  0  0  0  0  0  0  0
    4.9246   41.1108   89.3445 N   0  0  0  0  0  0  0  0  0  0  0  0
    4.3753   42.0978   90.0632 C   0  0  0  0  0  0  0  0  0  0  0  0
    3.3137   42.6651   89.3773 C   0  0  0  0  0  0  0  0  0  0  0  0
    3.2217   41.9682   88.1557 C   0  0  0  0  0  0  0  0  0  0  0  0
    2.1918   42.1133   87.0872 C   0  0  0  0  0  0  0  0  0  0  0  0
    5.7339   40.5200   89.6394 H   0  0  0  0  0  0  0  0  0  0  0  0
    2.5401   43.8013   89.9567 C   0  0  0  0  0  0  0  0  0  0  0  0
    1.2921   43.7379   90.5852 C   0  0  0  0  0  0  0  0  0  0  0  0
    0.8381   45.2995   91.0216 S   0  0  0  0  0  0  0  0  0  0  0  0
    2.2230   46.0055   90.3900 C   0  0  0  0  0  0  0  0  0  0  0  0
    3.0354   45.0691   89.8541 N   0  0  0  0  0  0  0  0  0  0  0  0
    2.5137   47.4566   90.3863 C   0  0  0  0  0  0  0  0  0  0  0  0
    1.8094   48.3023   91.1653 C   0  0  0  0  0  0  0  0  0  0  0  0
    2.1235   49.7689   91.1596 C   0  0  0  0  0  0  0  0  0  0  0  0
    3.2007   50.1645   90.2827 N   0  0  0  0  0  0  0  0  0  0  0  0
    3.8857   49.1997   89.4956 C   0  0  0  0  0  0  0  0  0  0  0  0
    3.5619   47.9512   89.5510 N   0  0  0  0  0  0  0  0  0  0  0  0
    3.4749   51.1560   90.2285 H   0  0  0  0  0  0  0  0  0  0  0  0
  7  8  1  0
  7 16  2  0
  8  9  1  0
  9 10  2  0
 10 11  1  0
 11 12  1  0
 11 15  2  0
 12 13  1  0
 13 14  2  0
 14 18  1  0
 14 15  1  0
 18 19  2  0
 18 22  1  0
 19 20  1  0
 20 21  1  0
 21 23  1  0
 21 22  2  0
 23 24  2  0
 23 28  1  0
 24 25  1  0
 25 26  1  0
 26 27  1  0
 27 28  2  0
 15 16  1  0
  3  4  1  0
  4  5  2  0
  4  2  1  0
  2  1  1  0
  7  3  1  0
 12 17  1  0
 26 29  1  0
  3  6  1  0
M  ISO 1   1  13
M  END
> <minimizedAffinity>
-5.45389

$$$$
_Inhib_32_acrylamide


 29 32  0  0  0  0  0  0  0  0999 V2000
   -0.5736   45.5026   80.4732 C   0  0  0  0  0  0  0  0  0  0  0  0
    0.4487   45.9033   79.3465 C   0  0  0  0  0  0  0  0  0  0  0  0
   -0.7171   47.1016   77.4497 N   0  0  0  0  0  0  0  0  0  0  0  0
    0.0607   47.1567   78.5836 C   0  0  0  0  0  0  0  0  0  0  0  0
    0.5259   48.2206   78.9673 O   0  0  0  0  0  0  0  0  0  0  0  0
   -1.1456   46.1948   77.2095 H   0  0  0  0  0  0  0  0  0  0  0  0
   -0.8201   48.1746   76.4735 C   0  0  0  0  0  0  0  0  0  0  0  0
   -2.1884   48.6660   76.0217 C   0  0  0  0  0  0  0  0  0  0  0  0
   -2.4438   48.8554   74.6180 N   0  0  0  0  0  0  0  0  0  0  0  0
   -1.7767   49.6389   73.8484 C   0  0  0  0  0  0  0  0  0  0  0  0
   -0.5702   50.3831   74.2587 C   0  0  0  0  0  0  0  0  0  0  0  0
   -0.1603   51.4690   73.5818 N   0  0  0  0  0  0  0  0  0  0  0  0
    0.9661   51.9075   74.1572 C   0  0  0  0  0  0  0  0  0  0  0  0
    1.3209   51.0885   75.2167 C   0  0  0  0  0  0  0  0  0  0  0  0
    0.3321   50.0863   75.2829 C   0  0  0  0  0  0  0  0  0  0  0  0
    0.2845   48.8964   76.1803 C   0  0  0  0  0  0  0  0  0  0  0  0
   -0.6339   51.9049   72.7590 H   0  0  0  0  0  0  0  0  0  0  0  0
    2.5339   51.3712   76.0375 C   0  0  0  0  0  0  0  0  0  0  0  0
    2.8374   52.5581   76.7125 C   0  0  0  0  0  0  0  0  0  0  0  0
    4.3388   52.3780   77.4531 S   0  0  0  0  0  0  0  0  0  0  0  0
    4.5633   50.8152   76.8855 C   0  0  0  0  0  0  0  0  0  0  0  0
    3.5074   50.4200   76.1421 N   0  0  0  0  0  0  0  0  0  0  0  0
    5.7622   49.9831   77.1323 C   0  0  0  0  0  0  0  0  0  0  0  0
    5.7160   48.9466   77.9934 C   0  0  0  0  0  0  0  0  0  0  0  0
    6.9360   48.1052   78.2242 C   0  0  0  0  0  0  0  0  0  0  0  0
    8.1045   48.4950   77.4703 N   0  0  0  0  0  0  0  0  0  0  0  0
    8.0586   49.6063   76.5857 C   0  0  0  0  0  0  0  0  0  0  0  0
    6.9719   50.2869   76.4355 N   0  0  0  0  0  0  0  0  0  0  0  0
    8.9793   47.9611   77.5750 H   0  0  0  0  0  0  0  0  0  0  0  0
  7  8  1  0
  7 16  2  0
  8  9  1  0
  9 10  2  0
 10 11  1  0
 11 12  1  0
 11 15  2  0
 12 13  1  0
 13 14  2  0
 14 18  1  0
 14 15  1  0
 18 19  2  0
 18 22  1  0
 19 20  1  0
 20 21  1  0
 21 23  1  0
 21 22  2  0
 23 24  2  0
 23 28  1  0
 24 25  1  0
 25 26  1  0
 26 27  1  0
 27 28  2  0
 15 16  1  0
  3  4  1  0
  4  5  2  0
  4  2  1  0
  2  1  1  0
  7  3  1  0
 12 17  1  0
 26 29  1  0
  3  6  1  0
M  ISO 1   1  13
M  END
> <minimizedAffinity>
-5.39730

$$$$
_Inhib_32_acrylamide


 29 32  0  0  0  0  0  0  0  0999 V2000
    0.3139   44.5861   82.0776 C   0  0  0  0  0  0  0  0  0  0  0  0
    0.3587   43.8362   80.6952 C   0  0  0  0  0  0  0  0  0  0  0  0
    1.7402   45.5130   79.4019 N   0  0  0  0  0  0  0  0  0  0  0  0
    0.5991   44.7512   79.5085 C   0  0  0  0  0  0  0  0  0  0  0  0
   -0.2935   44.8492   78.6783 O   0  0  0  0  0  0  0  0  0  0  0  0
    2.4935   45.3407   80.0849 H   0  0  0  0  0  0  0  0  0  0  0  0
    1.8792   46.6624   78.5220 C   0  0  0  0  0  0  0  0  0  0  0  0
    3.2306   46.9889   77.9014 C   0  0  0  0  0  0  0  0  0  0  0  0
    3.7131   48.3446   77.9303 N   0  0  0  0  0  0  0  0  0  0  0  0
    3.1021   49.3537   77.4208 C   0  0  0  0  0  0  0  0  0  0  0  0
    1.7533   49.2983   76.8243 C   0  0  0  0  0  0  0  0  0  0  0  0
    1.3360   50.2406   75.9622 N   0  0  0  0  0  0  0  0  0  0  0  0
    0.0750   49.9500   75.6189 C   0  0  0  0  0  0  0  0  0  0  0  0
   -0.3580   48.8117   76.2792 C   0  0  0  0  0  0  0  0  0  0  0  0
    0.7248   48.3870   77.0753 C   0  0  0  0  0  0  0  0  0  0  0  0
    0.7623   47.2662   78.0580 C   0  0  0  0  0  0  0  0  0  0  0  0
    1.8915   51.0524   75.6108 H   0  0  0  0  0  0  0  0  0  0  0  0
   -1.7280   48.2652   76.0568 C   0  0  0  0  0  0  0  0  0  0  0  0
   -2.7851   48.8875   75.3845 C   0  0  0  0  0  0  0  0  0  0  0  0
   -4.1256   47.8705   75.4476 S   0  0  0  0  0  0  0  0  0  0  0  0
   -3.3334   46.6863   76.3335 C   0  0  0  0  0  0  0  0  0  0  0  0
   -2.0557   47.0478   76.5800 N   0  0  0  0  0  0  0  0  0  0  0  0
   -3.9465   45.4272   76.8121 C   0  0  0  0  0  0  0  0  0  0  0  0
   -3.1773   44.4024   77.2320 C   0  0  0  0  0  0  0  0  0  0  0  0
   -3.8135   43.1370   77.7254 C   0  0  0  0  0  0  0  0  0  0  0  0
   -5.2576   43.1263   77.7079 N   0  0  0  0  0  0  0  0  0  0  0  0
   -5.9849   44.2558   77.2445 C   0  0  0  0  0  0  0  0  0  0  0  0
   -5.3706   45.3143   76.8337 N   0  0  0  0  0  0  0  0  0  0  0  0
   -5.7645   42.2914   78.0355 H   0  0  0  0  0  0  0  0  0  0  0  0
  7  8  1  0
  7 16  2  0
  8  9  1  0
  9 10  2  0
 10 11  1  0
 11 12  1  0
 11 15  2  0
 12 13  1  0
 13 14  2  0
 14 18  1  0
 14 15  1  0
 18 19  2  0
 18 22  1  0
 19 20  1  0
 20 21  1  0
 21 23  1  0
 21 22  2  0
 23 24  2  0
 23 28  1  0
 24 25  1  0
 25 26  1  0
 26 27  1  0
 27 28  2  0
 15 16  1  0
  3  4  1  0
  4  5  2  0
  4  2  1  0
  2  1  1  0
  7  3  1  0
 12 17  1  0
 26 29  1  0
  3  6  1  0
M  ISO 1   1  13
M  END
> <minimizedAffinity>
-5.39709

$$$$
