Inhib_32_acrylamide
     RDKit          3D

  0  0  0  0  0  0  0  0  0  0999 V3000
M  V30 BEGIN CTAB
M  V30 COUNTS 40 43 0 0 0
M  V30 BEGIN ATOM
M  V30 1 C 3.439120 49.325620 82.053365 0
M  V30 2 C 3.466036 49.816174 83.417989 0 RAD=2 VAL=3
M  V30 3 N 4.571894 49.725693 84.221192 0
M  V30 4 C 5.705181 50.228369 83.841716 0
M  V30 5 C 6.010723 50.844160 82.576089 0
M  V30 6 N 7.073815 51.697276 82.382337 0
M  V30 7 C 7.122343 52.096170 81.074779 0
M  V30 8 C 6.077980 51.495766 80.403769 0
M  V30 9 C 5.768632 51.679019 78.983591 0
M  V30 10 C 4.519750 51.705786 78.408091 0
M  V30 11 S 4.660940 51.956560 76.724208 0
M  V30 12 C 6.395693 52.045936 76.867336 0
M  V30 13 C 7.226473 52.269547 75.708802 0
M  V30 14 C 8.566145 52.345366 75.880202 0
M  V30 15 C 9.408499 52.567949 74.736073 0 RAD=2 VAL=3
M  V30 16 N 8.775470 52.687947 73.537293 0
M  V30 17 C 7.410294 52.594817 73.470723 0
M  V30 18 N 6.605057 52.394799 74.468036 0
M  V30 19 N 6.822001 51.891580 78.114287 0
M  V30 20 C 5.392525 50.678969 81.347027 0
M  V30 21 C 4.317826 49.762100 81.126943 0
M  V30 22 N 2.461030 48.426984 81.652543 0
M  V30 23 C 1.428534 47.894787 82.402044 0
M  V30 24 O 1.134347 48.168246 83.557604 0
M  V30 25 C 0.630290 46.903775 81.620456 0 VAL=3
M  V30 26 C -0.437000 46.306000 82.166000 0 MASS=13 VAL=3
M  V30 27 H 2.530993 50.047267 83.918374 0
M  V30 28 H 6.528842 50.186830 84.575544 0
M  V30 29 H 7.719945 51.995107 83.101810 0
M  V30 30 H 7.887280 52.777268 80.725452 0
M  V30 31 H 3.553400 51.606386 78.879049 0
M  V30 32 H 9.032755 52.244280 76.854345 0
M  V30 33 H 10.486427 52.643053 74.779250 0
M  V30 34 H 9.328626 52.846554 72.705199 0
M  V30 35 H 7.015411 52.707824 72.447613 0
M  V30 36 H 4.230573 49.384761 80.111667 0
M  V30 37 H 2.527966 48.112703 80.694299 0
M  V30 38 H 0.938924 46.660706 80.613737 0
M  V30 39 H -1.016231 45.576033 81.613918 0
M  V30 40 H -0.754968 46.521485 83.181881 0
M  V30 END ATOM
M  V30 BEGIN BOND
M  V30 1 1 1 2
M  V30 2 2 1 21
M  V30 3 1 2 3
M  V30 4 2 3 4
M  V30 5 1 4 5
M  V30 6 1 5 6
M  V30 7 2 5 20
M  V30 8 1 6 7
M  V30 9 2 7 8
M  V30 10 1 8 9
M  V30 11 1 8 20
M  V30 12 2 9 10
M  V30 13 1 9 19
M  V30 14 1 10 11
M  V30 15 1 11 12
M  V30 16 1 12 13
M  V30 17 2 12 19
M  V30 18 2 13 14
M  V30 19 1 13 18
M  V30 20 1 14 15
M  V30 21 1 15 16
M  V30 22 1 16 17
M  V30 23 2 17 18
M  V30 24 1 20 21
M  V30 25 1 22 23
M  V30 26 2 23 24
M  V30 27 1 23 25
M  V30 28 1 25 26
M  V30 29 1 1 22
M  V30 30 1 2 27
M  V30 31 1 4 28
M  V30 32 1 6 29
M  V30 33 1 7 30
M  V30 34 1 10 31
M  V30 35 1 14 32
M  V30 36 1 15 33
M  V30 37 1 16 34
M  V30 38 1 17 35
M  V30 39 1 21 36
M  V30 40 1 22 37
M  V30 41 1 25 38
M  V30 42 1 26 39
M  V30 43 1 26 40
M  V30 END BOND
M  V30 END CTAB
M  END
>  <Type>  (1) 
pre-reaction

>  <Warhead>  (1) 
acrylamide

$$$$
