ROOT
HETATM    1 C1   LIG A   1       0.277  40.908  78.860  1.00  0.00    +0.046 C 
HETATM    2 C2   LIG A   1       0.108  39.739  79.700  1.00  0.00    +0.118 C 
HETATM    3 N3   LIG A   1       0.936  38.649  79.664  1.00  0.00    -0.279 NA
HETATM    4 C4   LIG A   1       1.173  38.032  78.548  1.00  0.00    +0.046 C 
HETATM    5 C5   LIG A   1       0.729  38.392  77.227  1.00  0.00    +0.064 A 
HETATM    6 N6   LIG A   1       0.666  37.505  76.177  1.00  0.00    -0.359 NA
HETATM    7 C7   LIG A   1       0.240  38.145  75.042  1.00  0.00    +0.011 A 
HETATM    8 C8   LIG A   1       0.036  39.476  75.350  1.00  0.00    +0.026 A 
HETATM    9 C9   LIG A   1      -0.419  40.524  74.423  1.00  0.00    +0.084 A 
HETATM   10 C10  LIG A   1      -0.540  40.404  73.056  1.00  0.00    +0.019 A 
HETATM   11 S11  LIG A   1      -1.089  41.878  72.383  1.00  0.00    -0.120 SA
HETATM   12 C12  LIG A   1      -1.156  42.591  73.970  1.00  0.00    +0.142 A 
HETATM   13 C13  LIG A   1      -1.551  43.963  74.159  1.00  0.00    +0.099 C 
HETATM   14 C14  LIG A   1      -2.575  44.502  73.458  1.00  0.00    -0.031 C 
HETATM   15 C15  LIG A   1      -2.947  45.870  73.704  1.00  0.00    +0.072 C 
HETATM   16 N16  LIG A   1      -2.225  46.530  74.651  1.00  0.00    -0.367 NA
HETATM   17 C17  LIG A   1      -1.214  45.886  75.315  1.00  0.00    +0.089 C 
HETATM   18 N18  LIG A   1      -0.835  44.660  75.131  1.00  0.00    -0.237 NA
HETATM   19 N19  LIG A   1      -0.776  41.758  74.925  1.00  0.00    -0.234 NA
HETATM   20 C20  LIG A   1       0.352  39.629  76.733  1.00  0.00    +0.012 A 
HETATM   21 C21  LIG A   1       0.367  40.822  77.518  1.00  0.00    -0.030 C 
HETATM   22 N22  LIG A   1       0.270  42.178  79.419  1.00  0.00    -0.327 NA
HETATM   23 C23  LIG A   1       0.151  42.533  80.743  1.00  0.00    +0.228 C 
HETATM   24 O24  LIG A   1      -0.013  41.804  81.710  1.00  0.00    -0.274 OA
HETATM   25 C25  LIG A   1       0.222  43.993  80.930  1.00  0.00    +0.060 C 
HETATM   26 C26  LIG A   1      -0.030  44.536  82.290  1.00  0.00    +0.005 C 
HETATM   27 H27  LIG A   1      -0.567  39.794  80.548  1.00  0.00    +0.065 H 
HETATM   28 H28  LIG A   1       1.785  37.117  78.621  1.00  0.00    +0.086 H 
HETATM   29 H29  LIG A   1       0.887  36.520  76.238  1.00  0.00    +0.166 HD
HETATM   30 H30  LIG A   1       0.120  37.595  74.119  1.00  0.00    +0.082 H 
HETATM   31 H31  LIG A   1      -0.327  39.550  72.431  1.00  0.00    +0.076 H 
HETATM   32 H32  LIG A   1      -3.151  43.948  72.726  1.00  0.00    +0.062 H 
HETATM   33 H33  LIG A   1      -3.758  46.382  73.204  1.00  0.00    +0.060 H 
HETATM   34 H34  LIG A   1      -2.469  47.486  74.877  1.00  0.00    +0.162 HD
HETATM   35 H35  LIG A   1      -0.712  46.521  76.064  1.00  0.00    +0.104 H 
HETATM   36 H36  LIG A   1       0.447  41.748  76.953  1.00  0.00    +0.065 H 
HETATM   37 H37  LIG A   1       0.354  42.936  78.752  1.00  0.00    +0.169 HD
HETATM   38 H38  LIG A   1       0.589  44.620  80.130  1.00  0.00    +0.042 H 
HETATM   39 H39  LIG A   1       0.867  44.421  82.905  1.00  0.00    +0.039 H 
HETATM   40 H40  LIG A   1      -0.867  44.020  82.770  1.00  0.00    +0.039 H 
HETATM   41 S41  LIG A   1      -0.437  46.306  82.166  1.00  0.00    -0.165 SA
HETATM   42 C42  LIG A   1      -0.699  46.637  83.925  1.00  0.00    -0.018 C 
HETATM   43 H43  LIG A   1       0.213  46.430  84.491  1.00  0.00    +0.034 H 
HETATM   44 H44  LIG A   1      -1.519  46.026  84.310  1.00  0.00    +0.034 H 
HETATM   45 H45  LIG A   1      -0.959  47.691  84.058  1.00  0.00    +0.034 H 
ENDROOT
TORSDOF 0
