@<TRIPOS>MOLECULE
/home/neil/git/Oslo/VirtualScreen/Outputs/Covalent/Inhib_32_acry/params/adduct.pdb
   59    62     1     0     0
SMALL
bcc


@<TRIPOS>ATOM
      1 CN           2.4150    50.9480    82.6640 c3         1 MOL       0.153100
      2 HN1          2.6840    51.0330    83.7170 h1         1 MOL       0.029700
      3 HN2          2.0850    51.9180    82.2930 h1         1 MOL       0.029700
      4 HN3          3.2830    50.6180    82.0930 h1         1 MOL       0.029700
      5 N            1.3280    49.9700    82.5130 n7         1 MOL      -0.821200
      6 H            1.3280    50.0600    81.5070 hn         1 MOL       0.360800
      7 CA           0.2500    49.0000    82.3630 c3         1 MOL       0.186500
      8 HA          -0.3830    49.0210    83.2500 h1         1 MOL       0.067700
      9 CB           0.8460    47.5940    82.1920 c3         1 MOL      -0.017300
     10 HB2          1.5870    47.5100    81.3970 h1         1 MOL       0.080200
     11 HB3          1.6910    47.3780    82.8460 h1         1 MOL       0.080200
     12 SG          -0.4370    46.3060    82.1660 ss         1 MOL      -0.307200
     13 CC          -0.5830    49.3520    81.1350 c3         1 MOL      -0.134100
     14 HC1         -1.6430    49.2810    81.3830 hc         1 MOL       0.044033
     15 HC2         -0.3520    48.6570    80.3280 hc         1 MOL       0.044033
     16 HC3         -0.3520    50.3680    80.8180 hc         1 MOL       0.044033
     17 C1           0.2910    44.6150    81.7910 c3         1 MOL      -0.014300
     18 C2          -0.2030    43.8300    80.5200 c3         1 MOL      -0.161400
     19 N3          -0.4450    44.9900    78.2870 ns         1 MOL      -0.477100
     20 C4          -0.9630    44.6880    79.5250 c          1 MOL       0.669100
     21 O5          -2.0270    45.1700    79.8880 o          1 MOL      -0.588100
     22 H6           0.4160    44.5020    77.9990 hn         1 MOL       0.314500
     23 C7          -0.9160    46.0780    77.4440 c2         1 MOL       0.045400
     24 C8           0.0680    46.8520    76.5770 ce         1 MOL      -0.043400
     25 N9           0.0180    48.2900    76.5630 ne         1 MOL      -0.554300
     26 C10         -1.0080    48.9870    76.2290 ce         1 MOL       0.483800
     27 C11         -2.3350    48.4220    75.9160 cc         1 MOL      -0.237200
     28 N12         -3.2320    49.1150    75.1950 na         1 MOL      -0.156100
     29 C13         -4.3420    48.3720    75.1020 cc         1 MOL      -0.125300
     30 C14         -4.1870    47.1790    75.7890 cd         1 MOL      -0.180500
     31 C15         -2.8870    47.2080    76.3320 cd         1 MOL      -0.064300
     32 C16         -2.2450    46.2150    77.2400 c3         1 MOL       0.011100
     33 H17         -3.0940    50.0600    74.7720 hn         1 MOL       0.298700
     34 C18         -5.2780    46.1630    75.8260 cd         1 MOL       0.437800
     35 C19         -6.0140    45.6760    74.7400 cc         1 MOL      -0.301400
     36 S20         -7.1520    44.5780    75.3200 ss         1 MOL       0.008700
     37 C21         -6.6890    44.7640    76.9220 cc         1 MOL       0.451200
     38 N22         -5.6730    45.6480    77.0270 nd         1 MOL      -0.633000
     39 C23         -7.3180    44.0830    78.0750 ce         1 MOL       0.047800
     40 C24         -8.5640    44.4110    78.4730 c2         1 MOL      -0.197200
     41 C25         -9.1940    43.7040    79.6360 c6         1 MOL       0.242000
     42 N26         -8.3750    42.6880    80.2550 nu         1 MOL      -0.871200
     43 C27         -7.0690    42.4130    79.7670 c2         1 MOL       0.638100
     44 N28         -6.5900    43.0620    78.7590 ne         1 MOL      -0.660300
     45 H29         -8.7420    42.1580    81.0590 hn         1 MOL       0.431800
     46 H3           0.0910    43.9940    82.6390 h1         1 MOL       0.077700
     47 H4           1.3190    44.8230    81.5780 h1         1 MOL       0.077700
     48 H5           0.6510    43.4170    80.0260 hc         1 MOL       0.082200
     49 H7          -0.8820    43.0780    80.8640 hc         1 MOL       0.082200
     50 H8           0.7640    46.3500    76.0050 h4         1 MOL       0.147000
     51 H9          -0.8970    50.0120    76.1760 h4         1 MOL       0.017800
     52 H10         -5.1940    48.6490    74.5900 h4         1 MOL       0.170000
     53 H11         -2.5770    45.2590    76.8930 hc         1 MOL       0.092200
     54 H12         -2.5390    46.6130    78.1890 hc         1 MOL       0.092200
     55 H13         -5.8820    45.9440    73.7520 h4         1 MOL       0.174000
     56 H14         -9.0850    45.1500    77.9760 ha         1 MOL       0.180000
     57 H15        -10.0950    43.2390    79.2930 h1         1 MOL       0.041200
     58 H16         -9.3570    44.4510    80.3850 h1         1 MOL       0.041200
     59 H18         -6.4970    41.6860    80.2240 h5         1 MOL       0.041800
@<TRIPOS>BOND
     1     1     5 1   
     2     1     2 1   
     3     1     3 1   
     4     1     4 1   
     5     5     7 1   
     6     5     6 1   
     7     7     9 1   
     8     7    13 1   
     9     7     8 1   
    10     9    12 1   
    11     9    10 1   
    12     9    11 1   
    13    12    17 1   
    14    13    14 1   
    15    13    15 1   
    16    13    16 1   
    17    35    36 1   
    18    35    34 2   
    19    33    28 1   
    20    29    28 1   
    21    29    30 2   
    22    28    27 1   
    23    36    37 1   
    24    30    34 1   
    25    30    31 1   
    26    34    38 1   
    27    27    26 1   
    28    27    31 2   
    29    26    25 2   
    30    31    32 1   
    31    25    24 1   
    32    24    23 2   
    33    37    38 2   
    34    37    39 1   
    35    32    23 1   
    36    23    19 1   
    37    22    19 1   
    38    39    40 2   
    39    39    44 1   
    40    19    20 1   
    41    40    41 1   
    42    44    43 2   
    43    20    21 2   
    44    20    18 1   
    45    41    42 1   
    46    43    42 1   
    47    42    45 1   
    48    18    17 1   
    49    17    46 1   
    50    17    47 1   
    51    18    48 1   
    52    18    49 1   
    53    24    50 1   
    54    26    51 1   
    55    29    52 1   
    56    32    53 1   
    57    32    54 1   
    58    35    55 1   
    59    40    56 1   
    60    41    57 1   
    61    41    58 1   
    62    43    59 1   
@<TRIPOS>SUBSTRUCTURE
     1 MOL         1 TEMP              0 ****  ****    0 ROOT
