_Inhib_32_acrylamide
     RDKit          3D

  0  0  0  0  0  0  0  0  0  0999 V3000
M  V30 BEGIN CTAB
M  V30 COUNTS 29 32 0 0 0
M  V30 BEGIN ATOM
M  V30 1 C -0.971500 44.875200 79.943100 0
M  V30 2 C -0.714500 46.093800 80.430300 0
M  V30 3 N 0.205900 42.922600 80.822000 0
M  V30 4 C -0.958700 43.594900 80.731400 0
M  V30 5 O -1.971000 43.152200 81.257400 0
M  V30 6 H 0.984200 43.336500 80.277700 0
M  V30 7 C 0.481900 41.697600 81.529500 0
M  V30 8 C 0.099900 41.410500 82.993600 0
M  V30 9 N -0.548400 40.143300 83.265000 0
M  V30 10 C -0.089700 38.964700 83.001400 0
M  V30 11 C 1.114300 38.681800 82.190600 0
M  V30 12 N 1.716600 37.475200 82.149400 0
M  V30 13 C 2.681800 37.528400 81.206700 0
M  V30 14 C 2.706800 38.786400 80.636600 0
M  V30 15 C 1.703000 39.513300 81.265200 0
M  V30 16 C 1.243400 40.834000 80.847500 0
M  V30 17 H 1.464200 36.637700 82.719700 0
M  V30 18 C 3.576100 39.249700 79.523600 0
M  V30 19 C 4.846500 39.803400 79.713000 0
M  V30 20 S 5.440700 40.300700 78.232000 0
M  V30 21 C 4.075500 39.792400 77.396800 0
M  V30 22 N 3.164000 39.223800 78.225000 0
M  V30 23 C 3.868700 40.043000 75.957800 0
M  V30 24 C 2.667500 40.416000 75.479500 0
M  V30 25 C 2.502400 40.703500 74.016100 0
M  V30 26 N 3.703400 40.578700 73.221900 0
M  V30 27 C 4.927100 40.175100 73.818600 0
M  V30 28 N 4.991500 39.925800 75.081800 0
M  V30 29 H 3.671800 40.781100 72.212600 0
M  V30 END ATOM
M  V30 BEGIN BOND
M  V30 1 1 7 8
M  V30 2 2 7 16
M  V30 3 1 8 9
M  V30 4 2 9 10
M  V30 5 1 10 11
M  V30 6 1 11 12
M  V30 7 2 11 15
M  V30 8 1 12 13
M  V30 9 2 13 14
M  V30 10 1 14 18
M  V30 11 1 14 15
M  V30 12 2 18 19
M  V30 13 1 18 22
M  V30 14 1 19 20
M  V30 15 1 20 21
M  V30 16 1 21 23
M  V30 17 2 21 22
M  V30 18 2 23 24
M  V30 19 1 23 28
M  V30 20 1 24 25
M  V30 21 1 25 26
M  V30 22 1 26 27
M  V30 23 2 27 28
M  V30 24 1 15 16
M  V30 25 1 3 4
M  V30 26 2 4 5
M  V30 27 1 4 1
M  V30 28 2 1 2
M  V30 29 1 7 3
M  V30 30 1 12 17
M  V30 31 1 26 29
M  V30 32 1 3 6
M  V30 END BOND
M  V30 END CTAB
M  END
>  <minimizedAffinity>  (1) 
-2.08738

>  <CNNscore>  (1) 
0.6034960151

>  <CNNaffinity>  (1) 
4.2773380280

>  <CNN_VS>  (1) 
2.5813565254

$$$$
