_Inhib_32_acrylamide


 29 32  0  0  0  0  0  0  0  0999 V2000
   -0.9715   44.8752   79.9431 C   0  0  0  0  0  0  0  0  0  0  0  0
   -0.7145   46.0938   80.4303 C   0  0  0  0  0  0  0  0  0  0  0  0
    0.2059   42.9226   80.8220 N   0  0  0  0  0  0  0  0  0  0  0  0
   -0.9587   43.5949   80.7314 C   0  0  0  0  0  0  0  0  0  0  0  0
   -1.9710   43.1522   81.2574 O   0  0  0  0  0  0  0  0  0  0  0  0
    0.9842   43.3365   80.2777 H   0  0  0  0  0  0  0  0  0  0  0  0
    0.4819   41.6976   81.5295 C   0  0  0  0  0  0  0  0  0  0  0  0
    0.0999   41.4105   82.9936 C   0  0  0  0  0  0  0  0  0  0  0  0
   -0.5484   40.1433   83.2650 N   0  0  0  0  0  0  0  0  0  0  0  0
   -0.0897   38.9647   83.0014 C   0  0  0  0  0  0  0  0  0  0  0  0
    1.1143   38.6818   82.1906 C   0  0  0  0  0  0  0  0  0  0  0  0
    1.7166   37.4752   82.1494 N   0  0  0  0  0  0  0  0  0  0  0  0
    2.6818   37.5284   81.2067 C   0  0  0  0  0  0  0  0  0  0  0  0
    2.7068   38.7864   80.6366 C   0  0  0  0  0  0  0  0  0  0  0  0
    1.7030   39.5133   81.2652 C   0  0  0  0  0  0  0  0  0  0  0  0
    1.2434   40.8340   80.8475 C   0  0  0  0  0  0  0  0  0  0  0  0
    1.4642   36.6377   82.7197 H   0  0  0  0  0  0  0  0  0  0  0  0
    3.5761   39.2497   79.5236 C   0  0  0  0  0  0  0  0  0  0  0  0
    4.8465   39.8034   79.7130 C   0  0  0  0  0  0  0  0  0  0  0  0
    5.4407   40.3007   78.2320 S   0  0  0  0  0  0  0  0  0  0  0  0
    4.0755   39.7924   77.3968 C   0  0  0  0  0  0  0  0  0  0  0  0
    3.1640   39.2238   78.2250 N   0  0  0  0  0  0  0  0  0  0  0  0
    3.8687   40.0430   75.9578 C   0  0  0  0  0  0  0  0  0  0  0  0
    2.6675   40.4160   75.4795 C   0  0  0  0  0  0  0  0  0  0  0  0
    2.5024   40.7035   74.0161 C   0  0  0  0  0  0  0  0  0  0  0  0
    3.7034   40.5787   73.2219 N   0  0  0  0  0  0  0  0  0  0  0  0
    4.9271   40.1751   73.8186 C   0  0  0  0  0  0  0  0  0  0  0  0
    4.9915   39.9258   75.0818 N   0  0  0  0  0  0  0  0  0  0  0  0
    3.6718   40.7811   72.2126 H   0  0  0  0  0  0  0  0  0  0  0  0
  7  8  1  0
  7 16  2  0
  8  9  1  0
  9 10  2  0
 10 11  1  0
 11 12  1  0
 11 15  2  0
 12 13  1  0
 13 14  2  0
 14 18  1  0
 14 15  1  0
 18 19  2  0
 18 22  1  0
 19 20  1  0
 20 21  1  0
 21 23  1  0
 21 22  2  0
 23 24  2  0
 23 28  1  0
 24 25  1  0
 25 26  1  0
 26 27  1  0
 27 28  2  0
 15 16  1  0
  3  4  1  0
  4  5  2  0
  4  1  1  0
  1  2  2  0
  7  3  1  0
 12 17  1  0
 26 29  1  0
  3  6  1  0
M  END
> <minimizedAffinity>
-2.08738

> <CNNscore>
0.6034960151

> <CNNaffinity>
4.2773380280

> <CNN_VS>
2.5813565254

$$$$
_Inhib_32_acrylamide


 29 32  0  0  0  0  0  0  0  0999 V2000
   -1.7380   45.6046   79.9100 C   0  0  0  0  0  0  0  0  0  0  0  0
   -1.2503   46.6235   80.6257 C   0  0  0  0  0  0  0  0  0  0  0  0
   -1.1442   43.8240   81.4746 N   0  0  0  0  0  0  0  0  0  0  0  0
   -1.5826   44.1463   80.2416 C   0  0  0  0  0  0  0  0  0  0  0  0
   -1.8181   43.2702   79.4203 O   0  0  0  0  0  0  0  0  0  0  0  0
   -0.8973   44.6361   82.0686 H   0  0  0  0  0  0  0  0  0  0  0  0
   -0.9354   42.5141   82.0386 C   0  0  0  0  0  0  0  0  0  0  0  0
   -1.0128   42.1681   83.5373 C   0  0  0  0  0  0  0  0  0  0  0  0
   -1.7964   41.0050   83.9015 N   0  0  0  0  0  0  0  0  0  0  0  0
   -1.6296   39.7945   83.4820 C   0  0  0  0  0  0  0  0  0  0  0  0
   -0.7168   39.3900   82.3911 C   0  0  0  0  0  0  0  0  0  0  0  0
   -0.3661   38.1094   82.1510 N   0  0  0  0  0  0  0  0  0  0  0  0
    0.3479   38.0856   81.0053 C   0  0  0  0  0  0  0  0  0  0  0  0
    0.4646   39.3670   80.5028 C   0  0  0  0  0  0  0  0  0  0  0  0
   -0.2196   40.1909   81.3883 C   0  0  0  0  0  0  0  0  0  0  0  0
   -0.5197   41.5999   81.1541 C   0  0  0  0  0  0  0  0  0  0  0  0
   -0.6251   37.2784   82.7278 H   0  0  0  0  0  0  0  0  0  0  0  0
    1.1208   39.7765   79.2336 C   0  0  0  0  0  0  0  0  0  0  0  0
    0.4836   40.5269   78.2400 C   0  0  0  0  0  0  0  0  0  0  0  0
    1.5159   40.6727   76.9336 S   0  0  0  0  0  0  0  0  0  0  0  0
    2.7396   39.7890   77.6695 C   0  0  0  0  0  0  0  0  0  0  0  0
    2.3889   39.3905   78.9177 N   0  0  0  0  0  0  0  0  0  0  0  0
    3.9893   39.4119   76.9822 C   0  0  0  0  0  0  0  0  0  0  0  0
    4.2267   38.1399   76.6129 C   0  0  0  0  0  0  0  0  0  0  0  0
    5.4896   37.7983   75.8782 C   0  0  0  0  0  0  0  0  0  0  0  0
    6.3611   38.9157   75.5938 N   0  0  0  0  0  0  0  0  0  0  0  0
    6.0246   40.2250   76.0283 C   0  0  0  0  0  0  0  0  0  0  0  0
    4.9294   40.4425   76.6726 N   0  0  0  0  0  0  0  0  0  0  0  0
    7.2366   38.7612   75.0738 H   0  0  0  0  0  0  0  0  0  0  0  0
  7  8  1  0
  7 16  2  0
  8  9  1  0
  9 10  2  0
 10 11  1  0
 11 12  1  0
 11 15  2  0
 12 13  1  0
 13 14  2  0
 14 18  1  0
 14 15  1  0
 18 19  2  0
 18 22  1  0
 19 20  1  0
 20 21  1  0
 21 23  1  0
 21 22  2  0
 23 24  2  0
 23 28  1  0
 24 25  1  0
 25 26  1  0
 26 27  1  0
 27 28  2  0
 15 16  1  0
  3  4  1  0
  4  5  2  0
  4  1  1  0
  1  2  2  0
  7  3  1  0
 12 17  1  0
 26 29  1  0
  3  6  1  0
M  END
> <minimizedAffinity>
-0.52585

> <CNNscore>
0.5718261003

> <CNNaffinity>
4.3377103806

> <CNN_VS>
2.4804160595

$$$$
_Inhib_32_acrylamide


 29 32  0  0  0  0  0  0  0  0999 V2000
    0.3619   44.3951   80.4385 C   0  0  0  0  0  0  0  0  0  0  0  0
   -0.2162   45.5948   80.5597 C   0  0  0  0  0  0  0  0  0  0  0  0
    0.7929   42.2519   81.5305 N   0  0  0  0  0  0  0  0  0  0  0  0
    0.9544   43.5896   81.5614 C   0  0  0  0  0  0  0  0  0  0  0  0
    1.5443   44.1200   82.4932 O   0  0  0  0  0  0  0  0  0  0  0  0
    0.2125   41.9075   80.7445 H   0  0  0  0  0  0  0  0  0  0  0  0
    1.2785   41.2679   82.4649 C   0  0  0  0  0  0  0  0  0  0  0  0
    2.7313   41.1556   82.9638 C   0  0  0  0  0  0  0  0  0  0  0  0
    2.9241   41.0174   84.3933 N   0  0  0  0  0  0  0  0  0  0  0  0
    2.4373   40.0956   85.1565 C   0  0  0  0  0  0  0  0  0  0  0  0
    1.4229   39.1002   84.7479 C   0  0  0  0  0  0  0  0  0  0  0  0
    1.1284   37.9989   85.4698 N   0  0  0  0  0  0  0  0  0  0  0  0
    0.0664   37.3987   84.8911 C   0  0  0  0  0  0  0  0  0  0  0  0
   -0.3257   38.1179   83.7788 C   0  0  0  0  0  0  0  0  0  0  0  0
    0.5399   39.2018   83.6971 C   0  0  0  0  0  0  0  0  0  0  0  0
    0.3788   40.3309   82.7864 C   0  0  0  0  0  0  0  0  0  0  0  0
    1.6121   37.6812   86.3390 H   0  0  0  0  0  0  0  0  0  0  0  0
   -1.4847   37.8367   82.8917 C   0  0  0  0  0  0  0  0  0  0  0  0
   -1.3586   37.3958   81.5703 C   0  0  0  0  0  0  0  0  0  0  0  0
   -2.8810   37.3128   80.8854 S   0  0  0  0  0  0  0  0  0  0  0  0
   -3.6523   37.8294   82.2847 C   0  0  0  0  0  0  0  0  0  0  0  0
   -2.7698   38.0517   83.2905 N   0  0  0  0  0  0  0  0  0  0  0  0
   -5.0998   38.1054   82.3545 C   0  0  0  0  0  0  0  0  0  0  0  0
   -5.9254   37.3250   83.0758 C   0  0  0  0  0  0  0  0  0  0  0  0
   -7.3860   37.6586   83.1591 C   0  0  0  0  0  0  0  0  0  0  0  0
   -7.7885   38.8541   82.4536 N   0  0  0  0  0  0  0  0  0  0  0  0
   -6.8417   39.6124   81.7155 C   0  0  0  0  0  0  0  0  0  0  0  0
   -5.6037   39.2555   81.6725 N   0  0  0  0  0  0  0  0  0  0  0  0
   -8.7721   39.1579   82.4832 H   0  0  0  0  0  0  0  0  0  0  0  0
  7  8  1  0
  7 16  2  0
  8  9  1  0
  9 10  2  0
 10 11  1  0
 11 12  1  0
 11 15  2  0
 12 13  1  0
 13 14  2  0
 14 18  1  0
 14 15  1  0
 18 19  2  0
 18 22  1  0
 19 20  1  0
 20 21  1  0
 21 23  1  0
 21 22  2  0
 23 24  2  0
 23 28  1  0
 24 25  1  0
 25 26  1  0
 26 27  1  0
 27 28  2  0
 15 16  1  0
  3  4  1  0
  4  5  2  0
  4  1  1  0
  1  2  2  0
  7  3  1  0
 12 17  1  0
 26 29  1  0
  3  6  1  0
M  END
> <minimizedAffinity>
-2.86091

> <CNNscore>
0.5259731412

> <CNNaffinity>
4.5678462982

> <CNN_VS>
2.4025645256

$$$$
_Inhib_32_acrylamide


 29 32  0  0  0  0  0  0  0  0999 V2000
   -1.2557   45.3212   79.7923 C   0  0  0  0  0  0  0  0  0  0  0  0
   -1.0544   46.4307   80.5113 C   0  0  0  0  0  0  0  0  0  0  0  0
   -0.7322   43.6954   81.5399 N   0  0  0  0  0  0  0  0  0  0  0  0
   -0.9122   43.9224   80.2237 C   0  0  0  0  0  0  0  0  0  0  0  0
   -0.7720   43.0149   79.4147 O   0  0  0  0  0  0  0  0  0  0  0  0
   -0.7944   44.5417   82.1341 H   0  0  0  0  0  0  0  0  0  0  0  0
   -0.4223   42.4532   82.2019 C   0  0  0  0  0  0  0  0  0  0  0  0
   -0.2750   42.2688   83.7238 C   0  0  0  0  0  0  0  0  0  0  0  0
   -0.9782   41.1504   84.3192 N   0  0  0  0  0  0  0  0  0  0  0  0
   -0.8545   39.9022   84.0096 C   0  0  0  0  0  0  0  0  0  0  0  0
   -0.1037   39.3846   82.8454 C   0  0  0  0  0  0  0  0  0  0  0  0
    0.2291   38.0859   82.6926 N   0  0  0  0  0  0  0  0  0  0  0  0
    0.7690   37.9408   81.4637 C   0  0  0  0  0  0  0  0  0  0  0  0
    0.7905   39.1615   80.8175 C   0  0  0  0  0  0  0  0  0  0  0  0
    0.2291   40.0745   81.7019 C   0  0  0  0  0  0  0  0  0  0  0  0
   -0.1249   41.4503   81.3673 C   0  0  0  0  0  0  0  0  0  0  0  0
    0.0704   37.3209   83.3853 H   0  0  0  0  0  0  0  0  0  0  0  0
    1.2482   39.4340   79.4299 C   0  0  0  0  0  0  0  0  0  0  0  0
    2.4178   40.1381   79.1251 C   0  0  0  0  0  0  0  0  0  0  0  0
    2.5110   40.3304   77.4674 S   0  0  0  0  0  0  0  0  0  0  0  0
    1.0730   39.5097   77.1870 C   0  0  0  0  0  0  0  0  0  0  0  0
    0.5166   39.0647   78.3412 N   0  0  0  0  0  0  0  0  0  0  0  0
    0.4552   39.3950   75.8522 C   0  0  0  0  0  0  0  0  0  0  0  0
   -0.8739   39.2410   75.7089 C   0  0  0  0  0  0  0  0  0  0  0  0
   -1.4741   39.1697   74.3355 C   0  0  0  0  0  0  0  0  0  0  0  0
   -0.5377   39.3085   73.2434 N   0  0  0  0  0  0  0  0  0  0  0  0
    0.8510   39.4645   73.4959 C   0  0  0  0  0  0  0  0  0  0  0  0
    1.2994   39.4986   74.7041 N   0  0  0  0  0  0  0  0  0  0  0  0
   -0.8795   39.2908   72.2720 H   0  0  0  0  0  0  0  0  0  0  0  0
  7  8  1  0
  7 16  2  0
  8  9  1  0
  9 10  2  0
 10 11  1  0
 11 12  1  0
 11 15  2  0
 12 13  1  0
 13 14  2  0
 14 18  1  0
 14 15  1  0
 18 19  2  0
 18 22  1  0
 19 20  1  0
 20 21  1  0
 21 23  1  0
 21 22  2  0
 23 24  2  0
 23 28  1  0
 24 25  1  0
 25 26  1  0
 26 27  1  0
 27 28  2  0
 15 16  1  0
  3  4  1  0
  4  5  2  0
  4  1  1  0
  1  2  2  0
  7  3  1  0
 12 17  1  0
 26 29  1  0
  3  6  1  0
M  END
> <minimizedAffinity>
-1.09201

> <CNNscore>
0.5105825067

> <CNNaffinity>
4.3797941208

> <CNN_VS>
2.2362463474

$$$$
_Inhib_32_acrylamide


 29 32  0  0  0  0  0  0  0  0999 V2000
   -0.1711   44.7735   79.9626 C   0  0  0  0  0  0  0  0  0  0  0  0
   -0.5769   45.9566   80.4359 C   0  0  0  0  0  0  0  0  0  0  0  0
    0.8398   42.5547   80.1249 N   0  0  0  0  0  0  0  0  0  0  0  0
    0.5062   43.6948   80.7616 C   0  0  0  0  0  0  0  0  0  0  0  0
    0.7303   43.8236   81.9577 O   0  0  0  0  0  0  0  0  0  0  0  0
    0.5374   42.5114   79.1350 H   0  0  0  0  0  0  0  0  0  0  0  0
    1.5087   41.3936   80.6557 C   0  0  0  0  0  0  0  0  0  0  0  0
    2.9556   40.9757   80.3335 C   0  0  0  0  0  0  0  0  0  0  0  0
    3.8028   40.6290   81.4567 N   0  0  0  0  0  0  0  0  0  0  0  0
    3.5820   39.7147   82.3423 C   0  0  0  0  0  0  0  0  0  0  0  0
    2.3167   38.9643   82.4934 C   0  0  0  0  0  0  0  0  0  0  0  0
    2.1992   37.8471   83.2410 N   0  0  0  0  0  0  0  0  0  0  0  0
    0.8917   37.5124   83.2790 C   0  0  0  0  0  0  0  0  0  0  0  0
    0.1570   38.4210   82.5422 C   0  0  0  0  0  0  0  0  0  0  0  0
    1.0707   39.3445   82.0492 C   0  0  0  0  0  0  0  0  0  0  0  0
    0.7168   40.5896   81.3748 C   0  0  0  0  0  0  0  0  0  0  0  0
    2.9734   37.3459   83.7306 H   0  0  0  0  0  0  0  0  0  0  0  0
   -1.3192   38.4532   82.3723 C   0  0  0  0  0  0  0  0  0  0  0  0
   -2.1678   37.4184   82.7794 C   0  0  0  0  0  0  0  0  0  0  0  0
   -3.7278   37.7868   82.3058 S   0  0  0  0  0  0  0  0  0  0  0  0
   -3.2818   39.2476   81.6078 C   0  0  0  0  0  0  0  0  0  0  0  0
   -1.9525   39.4820   81.7420 N   0  0  0  0  0  0  0  0  0  0  0  0
   -4.2181   40.1011   80.8519 C   0  0  0  0  0  0  0  0  0  0  0  0
   -5.4174   39.6390   80.4531 C   0  0  0  0  0  0  0  0  0  0  0  0
   -6.3625   40.5470   79.7224 C   0  0  0  0  0  0  0  0  0  0  0  0
   -5.8951   41.9010   79.5301 N   0  0  0  0  0  0  0  0  0  0  0  0
   -4.6090   42.2943   79.9857 C   0  0  0  0  0  0  0  0  0  0  0  0
   -3.8408   41.4542   80.5907 N   0  0  0  0  0  0  0  0  0  0  0  0
   -6.4987   42.5871   79.0552 H   0  0  0  0  0  0  0  0  0  0  0  0
  7  8  1  0
  7 16  2  0
  8  9  1  0
  9 10  2  0
 10 11  1  0
 11 12  1  0
 11 15  2  0
 12 13  1  0
 13 14  2  0
 14 18  1  0
 14 15  1  0
 18 19  2  0
 18 22  1  0
 19 20  1  0
 20 21  1  0
 21 23  1  0
 21 22  2  0
 23 24  2  0
 23 28  1  0
 24 25  1  0
 25 26  1  0
 26 27  1  0
 27 28  2  0
 15 16  1  0
  3  4  1  0
  4  5  2  0
  4  1  1  0
  1  2  2  0
  7  3  1  0
 12 17  1  0
 26 29  1  0
  3  6  1  0
M  END
> <minimizedAffinity>
-1.66745

> <CNNscore>
0.5092707872

> <CNNaffinity>
4.4621858597

> <CNN_VS>
2.2724609375

$$$$
_Inhib_32_acrylamide


 29 32  0  0  0  0  0  0  0  0999 V2000
   -1.9655   45.8949   79.9822 C   0  0  0  0  0  0  0  0  0  0  0  0
   -1.4453   46.8142   80.8023 C   0  0  0  0  0  0  0  0  0  0  0  0
   -0.6604   43.9341   79.3313 N   0  0  0  0  0  0  0  0  0  0  0  0
   -1.6997   44.4161   80.0413 C   0  0  0  0  0  0  0  0  0  0  0  0
   -2.4110   43.6591   80.6882 O   0  0  0  0  0  0  0  0  0  0  0  0
   -0.1692   44.6412   78.7551 H   0  0  0  0  0  0  0  0  0  0  0  0
   -0.1895   42.5750   79.2405 C   0  0  0  0  0  0  0  0  0  0  0  0
   -0.4362   41.4759   80.2908 C   0  0  0  0  0  0  0  0  0  0  0  0
   -0.9039   40.1949   79.8010 N   0  0  0  0  0  0  0  0  0  0  0  0
   -0.3215   39.4366   78.9322 C   0  0  0  0  0  0  0  0  0  0  0  0
    0.8524   39.8203   78.1187 C   0  0  0  0  0  0  0  0  0  0  0  0
    1.5951   38.9359   77.4211 N   0  0  0  0  0  0  0  0  0  0  0  0
    2.4824   39.6355   76.6819 C   0  0  0  0  0  0  0  0  0  0  0  0
    2.3144   40.9876   76.9096 C   0  0  0  0  0  0  0  0  0  0  0  0
    1.2720   41.0971   77.8219 C   0  0  0  0  0  0  0  0  0  0  0  0
    0.6263   42.3490   78.2041 C   0  0  0  0  0  0  0  0  0  0  0  0
    1.4860   37.8974   77.4246 H   0  0  0  0  0  0  0  0  0  0  0  0
    3.0450   42.1048   76.2560 C   0  0  0  0  0  0  0  0  0  0  0  0
    4.4392   42.2168   76.2461 C   0  0  0  0  0  0  0  0  0  0  0  0
    4.8556   43.6629   75.5188 S   0  0  0  0  0  0  0  0  0  0  0  0
    3.2592   44.0979   75.2320 C   0  0  0  0  0  0  0  0  0  0  0  0
    2.3949   43.1465   75.6652 N   0  0  0  0  0  0  0  0  0  0  0  0
    2.8659   45.4066   74.6760 C   0  0  0  0  0  0  0  0  0  0  0  0
    3.7013   46.4608   74.7137 C   0  0  0  0  0  0  0  0  0  0  0  0
    3.2854   47.7661   74.1015 C   0  0  0  0  0  0  0  0  0  0  0  0
    1.9837   47.7677   73.4733 N   0  0  0  0  0  0  0  0  0  0  0  0
    1.1716   46.6029   73.4877 C   0  0  0  0  0  0  0  0  0  0  0  0
    1.5865   45.5194   74.0497 N   0  0  0  0  0  0  0  0  0  0  0  0
    1.6396   48.6225   73.0134 H   0  0  0  0  0  0  0  0  0  0  0  0
  7  8  1  0
  7 16  2  0
  8  9  1  0
  9 10  2  0
 10 11  1  0
 11 12  1  0
 11 15  2  0
 12 13  1  0
 13 14  2  0
 14 18  1  0
 14 15  1  0
 18 19  2  0
 18 22  1  0
 19 20  1  0
 20 21  1  0
 21 23  1  0
 21 22  2  0
 23 24  2  0
 23 28  1  0
 24 25  1  0
 25 26  1  0
 26 27  1  0
 27 28  2  0
 15 16  1  0
  3  4  1  0
  4  5  2  0
  4  1  1  0
  1  2  2  0
  7  3  1  0
 12 17  1  0
 26 29  1  0
  3  6  1  0
M  END
> <minimizedAffinity>
-1.50294

> <CNNscore>
0.5059456825

> <CNNaffinity>
4.2423057556

> <CNN_VS>
2.1463763714

$$$$
_Inhib_32_acrylamide


 29 32  0  0  0  0  0  0  0  0999 V2000
   -1.0850   44.8530   79.9881 C   0  0  0  0  0  0  0  0  0  0  0  0
   -0.6632   46.0426   80.4298 C   0  0  0  0  0  0  0  0  0  0  0  0
   -0.2665   42.8022   81.0351 N   0  0  0  0  0  0  0  0  0  0  0  0
   -1.3098   43.6320   80.8363 C   0  0  0  0  0  0  0  0  0  0  0  0
   -2.4057   43.3736   81.3158 O   0  0  0  0  0  0  0  0  0  0  0  0
    0.5950   43.0654   80.5235 H   0  0  0  0  0  0  0  0  0  0  0  0
   -0.2187   41.5926   81.8172 C   0  0  0  0  0  0  0  0  0  0  0  0
   -1.0698   41.3083   83.0690 C   0  0  0  0  0  0  0  0  0  0  0  0
   -1.7409   40.0255   83.1273 N   0  0  0  0  0  0  0  0  0  0  0  0
   -1.1915   38.8583   83.0579 C   0  0  0  0  0  0  0  0  0  0  0  0
    0.2232   38.6029   82.7109 C   0  0  0  0  0  0  0  0  0  0  0  0
    0.8326   37.4140   82.9000 N   0  0  0  0  0  0  0  0  0  0  0  0
    2.0596   37.4864   82.3415 C   0  0  0  0  0  0  0  0  0  0  0  0
    2.2470   38.7392   81.7903 C   0  0  0  0  0  0  0  0  0  0  0  0
    1.0719   39.4424   82.0257 C   0  0  0  0  0  0  0  0  0  0  0  0
    0.7503   40.7452   81.4517 C   0  0  0  0  0  0  0  0  0  0  0  0
    0.4212   36.5750   83.3661 H   0  0  0  0  0  0  0  0  0  0  0  0
    3.4322   39.2170   81.0313 C   0  0  0  0  0  0  0  0  0  0  0  0
    3.8500   38.6604   79.8180 C   0  0  0  0  0  0  0  0  0  0  0  0
    5.2776   39.3959   79.3543 S   0  0  0  0  0  0  0  0  0  0  0  0
    5.3177   40.4010   80.6989 C   0  0  0  0  0  0  0  0  0  0  0  0
    4.2429   40.2054   81.5030 N   0  0  0  0  0  0  0  0  0  0  0  0
    6.4478   41.2992   81.0027 C   0  0  0  0  0  0  0  0  0  0  0  0
    6.8204   42.2672   80.1453 C   0  0  0  0  0  0  0  0  0  0  0  0
    7.9475   43.1902   80.5044 C   0  0  0  0  0  0  0  0  0  0  0  0
    8.5379   42.9688   81.8050 N   0  0  0  0  0  0  0  0  0  0  0  0
    8.0766   41.9167   82.6396 C   0  0  0  0  0  0  0  0  0  0  0  0
    7.1141   41.1487   82.2577 N   0  0  0  0  0  0  0  0  0  0  0  0
    9.3029   43.5774   82.1290 H   0  0  0  0  0  0  0  0  0  0  0  0
  7  8  1  0
  7 16  2  0
  8  9  1  0
  9 10  2  0
 10 11  1  0
 11 12  1  0
 11 15  2  0
 12 13  1  0
 13 14  2  0
 14 18  1  0
 14 15  1  0
 18 19  2  0
 18 22  1  0
 19 20  1  0
 20 21  1  0
 21 23  1  0
 21 22  2  0
 23 24  2  0
 23 28  1  0
 24 25  1  0
 25 26  1  0
 26 27  1  0
 27 28  2  0
 15 16  1  0
  3  4  1  0
  4  5  2  0
  4  1  1  0
  1  2  2  0
  7  3  1  0
 12 17  1  0
 26 29  1  0
  3  6  1  0
M  END
> <minimizedAffinity>
-2.84304

> <CNNscore>
0.5044545531

> <CNNaffinity>
4.3505153656

> <CNN_VS>
2.1946372986

$$$$
_Inhib_32_acrylamide


 29 32  0  0  0  0  0  0  0  0999 V2000
    0.7487   44.0273   81.3439 C   0  0  0  0  0  0  0  0  0  0  0  0
    0.5149   44.8296   82.3879 C   0  0  0  0  0  0  0  0  0  0  0  0
    0.2951   43.1700   79.1010 N   0  0  0  0  0  0  0  0  0  0  0  0
    0.1885   44.2033   79.9597 C   0  0  0  0  0  0  0  0  0  0  0  0
   -0.3272   45.2539   79.6023 O   0  0  0  0  0  0  0  0  0  0  0  0
    0.8168   42.3554   79.4719 H   0  0  0  0  0  0  0  0  0  0  0  0
   -0.1761   43.0809   77.7418 C   0  0  0  0  0  0  0  0  0  0  0  0
   -1.6011   43.4252   77.2699 C   0  0  0  0  0  0  0  0  0  0  0  0
   -1.7169   44.2758   76.1026 N   0  0  0  0  0  0  0  0  0  0  0  0
   -1.2255   44.0537   74.9286 C   0  0  0  0  0  0  0  0  0  0  0  0
   -0.2781   42.9686   74.5940 C   0  0  0  0  0  0  0  0  0  0  0  0
    0.0119   42.5980   73.3294 N   0  0  0  0  0  0  0  0  0  0  0  0
    1.0132   41.6940   73.3842 C   0  0  0  0  0  0  0  0  0  0  0  0
    1.3701   41.4740   74.7005 C   0  0  0  0  0  0  0  0  0  0  0  0
    0.5466   42.2923   75.4640 C   0  0  0  0  0  0  0  0  0  0  0  0
    0.7013   42.5281   76.8960 C   0  0  0  0  0  0  0  0  0  0  0  0
   -0.4337   42.9653   72.4594 H   0  0  0  0  0  0  0  0  0  0  0  0
    2.4635   40.5994   75.1992 C   0  0  0  0  0  0  0  0  0  0  0  0
    2.6001   39.2531   74.8451 C   0  0  0  0  0  0  0  0  0  0  0  0
    3.8762   38.5997   75.7044 S   0  0  0  0  0  0  0  0  0  0  0  0
    4.2207   40.0427   76.4912 C   0  0  0  0  0  0  0  0  0  0  0  0
    3.3878   41.0388   76.0989 N   0  0  0  0  0  0  0  0  0  0  0  0
    5.2370   40.1607   77.5541 C   0  0  0  0  0  0  0  0  0  0  0  0
    6.5123   39.7855   77.3455 C   0  0  0  0  0  0  0  0  0  0  0  0
    7.5297   39.9581   78.4348 C   0  0  0  0  0  0  0  0  0  0  0  0
    7.0371   40.5643   79.6508 N   0  0  0  0  0  0  0  0  0  0  0  0
    5.6694   40.9248   79.7773 C   0  0  0  0  0  0  0  0  0  0  0  0
    4.8458   40.7299   78.8050 N   0  0  0  0  0  0  0  0  0  0  0  0
    7.6828   40.7340   80.4349 H   0  0  0  0  0  0  0  0  0  0  0  0
  7  8  1  0
  7 16  2  0
  8  9  1  0
  9 10  2  0
 10 11  1  0
 11 12  1  0
 11 15  2  0
 12 13  1  0
 13 14  2  0
 14 18  1  0
 14 15  1  0
 18 19  2  0
 18 22  1  0
 19 20  1  0
 20 21  1  0
 21 23  1  0
 21 22  2  0
 23 24  2  0
 23 28  1  0
 24 25  1  0
 25 26  1  0
 26 27  1  0
 27 28  2  0
 15 16  1  0
  3  4  1  0
  4  5  2  0
  4  1  1  0
  1  2  2  0
  7  3  1  0
 12 17  1  0
 26 29  1  0
  3  6  1  0
M  END
> <minimizedAffinity>
-1.31298

> <CNNscore>
0.5043541789

> <CNNaffinity>
4.1530485153

> <CNN_VS>
2.0946073532

$$$$
_Inhib_32_acrylamide


 29 32  0  0  0  0  0  0  0  0999 V2000
   -1.2505   45.4854   79.7290 C   0  0  0  0  0  0  0  0  0  0  0  0
   -1.1523   46.5272   80.5616 C   0  0  0  0  0  0  0  0  0  0  0  0
   -0.6994   43.6587   81.2557 N   0  0  0  0  0  0  0  0  0  0  0  0
   -0.7116   44.1051   79.9841 C   0  0  0  0  0  0  0  0  0  0  0  0
   -0.2710   43.4083   79.0797 O   0  0  0  0  0  0  0  0  0  0  0  0
   -1.0188   44.3511   81.9570 H   0  0  0  0  0  0  0  0  0  0  0  0
   -0.2597   42.3795   81.7532 C   0  0  0  0  0  0  0  0  0  0  0  0
   -0.5208   41.8391   83.1716 C   0  0  0  0  0  0  0  0  0  0  0  0
   -1.0215   40.4832   83.2741 N   0  0  0  0  0  0  0  0  0  0  0  0
   -0.4644   39.4131   82.8119 C   0  0  0  0  0  0  0  0  0  0  0  0
    0.7099   39.3851   81.9135 C   0  0  0  0  0  0  0  0  0  0  0  0
    1.4261   38.2700   81.6600 N   0  0  0  0  0  0  0  0  0  0  0  0
    2.3216   38.5662   80.6939 C   0  0  0  0  0  0  0  0  0  0  0  0
    2.1859   39.8901   80.3234 C   0  0  0  0  0  0  0  0  0  0  0  0
    1.1550   40.4031   81.1011 C   0  0  0  0  0  0  0  0  0  0  0  0
    0.5410   41.7138   80.9127 C   0  0  0  0  0  0  0  0  0  0  0  0
    1.2939   37.3350   82.1057 H   0  0  0  0  0  0  0  0  0  0  0  0
    2.9349   40.6043   79.2566 C   0  0  0  0  0  0  0  0  0  0  0  0
    4.2583   41.0351   79.3961 C   0  0  0  0  0  0  0  0  0  0  0  0
    4.6897   41.8930   78.0280 S   0  0  0  0  0  0  0  0  0  0  0  0
    3.1913   41.6853   77.2989 C   0  0  0  0  0  0  0  0  0  0  0  0
    2.3551   40.9491   78.0726 N   0  0  0  0  0  0  0  0  0  0  0  0
    2.8175   42.3261   76.0237 C   0  0  0  0  0  0  0  0  0  0  0  0
    3.7393   42.5951   75.0809 C   0  0  0  0  0  0  0  0  0  0  0  0
    3.3184   43.2093   73.7782 C   0  0  0  0  0  0  0  0  0  0  0  0
    1.8990   43.4394   73.6328 N   0  0  0  0  0  0  0  0  0  0  0  0
    1.0028   43.1242   74.6882 C   0  0  0  0  0  0  0  0  0  0  0  0
    1.4378   42.6148   75.7897 N   0  0  0  0  0  0  0  0  0  0  0  0
    1.5334   43.8390   72.7568 H   0  0  0  0  0  0  0  0  0  0  0  0
  7  8  1  0
  7 16  2  0
  8  9  1  0
  9 10  2  0
 10 11  1  0
 11 12  1  0
 11 15  2  0
 12 13  1  0
 13 14  2  0
 14 18  1  0
 14 15  1  0
 18 19  2  0
 18 22  1  0
 19 20  1  0
 20 21  1  0
 21 23  1  0
 21 22  2  0
 23 24  2  0
 23 28  1  0
 24 25  1  0
 25 26  1  0
 26 27  1  0
 27 28  2  0
 15 16  1  0
  3  4  1  0
  4  5  2  0
  4  1  1  0
  1  2  2  0
  7  3  1  0
 12 17  1  0
 26 29  1  0
  3  6  1  0
M  END
> <minimizedAffinity>
-0.73199

> <CNNscore>
0.4880783558

> <CNNaffinity>
4.3367805481

> <CNN_VS>
2.1166887283

$$$$
_Inhib_32_acrylamide


 29 32  0  0  0  0  0  0  0  0999 V2000
   -2.6988   47.5856   81.4441 C   0  0  0  0  0  0  0  0  0  0  0  0
   -1.9091   47.2425   82.4673 C   0  0  0  0  0  0  0  0  0  0  0  0
   -2.8983   46.1993   79.4417 N   0  0  0  0  0  0  0  0  0  0  0  0
   -2.4116   47.3300   79.9905 C   0  0  0  0  0  0  0  0  0  0  0  0
   -1.7375   48.1018   79.3217 O   0  0  0  0  0  0  0  0  0  0  0  0
   -3.3870   45.5744   80.1079 H   0  0  0  0  0  0  0  0  0  0  0  0
   -2.7819   45.7407   78.0803 C   0  0  0  0  0  0  0  0  0  0  0  0
   -3.4279   46.4156   76.8559 C   0  0  0  0  0  0  0  0  0  0  0  0
   -2.5765   46.6366   75.7045 N   0  0  0  0  0  0  0  0  0  0  0  0
   -1.9154   45.7436   75.0453 C   0  0  0  0  0  0  0  0  0  0  0  0
   -1.7461   44.3335   75.4575 C   0  0  0  0  0  0  0  0  0  0  0  0
   -1.2831   43.3687   74.6357 N   0  0  0  0  0  0  0  0  0  0  0  0
   -1.1142   42.2482   75.3697 C   0  0  0  0  0  0  0  0  0  0  0  0
   -1.4782   42.4908   76.6800 C   0  0  0  0  0  0  0  0  0  0  0  0
   -1.8749   43.8216   76.7286 C   0  0  0  0  0  0  0  0  0  0  0  0
   -2.1598   44.5627   77.9533 C   0  0  0  0  0  0  0  0  0  0  0  0
   -1.0632   43.4738   73.6203 H   0  0  0  0  0  0  0  0  0  0  0  0
   -1.3915   41.5465   77.8245 C   0  0  0  0  0  0  0  0  0  0  0  0
   -2.4252   41.3508   78.7463 C   0  0  0  0  0  0  0  0  0  0  0  0
   -1.8912   40.3061   79.9368 S   0  0  0  0  0  0  0  0  0  0  0  0
   -0.3718   40.1279   79.2440 C   0  0  0  0  0  0  0  0  0  0  0  0
   -0.2579   40.8405   78.0955 N   0  0  0  0  0  0  0  0  0  0  0  0
    0.7232   39.3724   79.8816 C   0  0  0  0  0  0  0  0  0  0  0  0
    1.9481   39.3165   79.3272 C   0  0  0  0  0  0  0  0  0  0  0  0
    3.0503   38.5739   80.0237 C   0  0  0  0  0  0  0  0  0  0  0  0
    2.6930   37.9857   81.2946 N   0  0  0  0  0  0  0  0  0  0  0  0
    1.3693   38.0964   81.7968 C   0  0  0  0  0  0  0  0  0  0  0  0
    0.4664   38.7349   81.1343 N   0  0  0  0  0  0  0  0  0  0  0  0
    3.4037   37.4783   81.8406 H   0  0  0  0  0  0  0  0  0  0  0  0
  7  8  1  0
  7 16  2  0
  8  9  1  0
  9 10  2  0
 10 11  1  0
 11 12  1  0
 11 15  2  0
 12 13  1  0
 13 14  2  0
 14 18  1  0
 14 15  1  0
 18 19  2  0
 18 22  1  0
 19 20  1  0
 20 21  1  0
 21 23  1  0
 21 22  2  0
 23 24  2  0
 23 28  1  0
 24 25  1  0
 25 26  1  0
 26 27  1  0
 27 28  2  0
 15 16  1  0
  3  4  1  0
  4  5  2  0
  4  1  1  0
  1  2  2  0
  7  3  1  0
 12 17  1  0
 26 29  1  0
  3  6  1  0
M  END
> <minimizedAffinity>
1.21567

> <CNNscore>
0.4737298191

> <CNNaffinity>
4.3640146255

> <CNN_VS>
2.0673639774

$$$$
_Inhib_32_acrylamide


 29 32  0  0  0  0  0  0  0  0999 V2000
    0.3763   43.9821   81.0649 C   0  0  0  0  0  0  0  0  0  0  0  0
    0.1033   45.2709   80.8350 C   0  0  0  0  0  0  0  0  0  0  0  0
    0.7258   42.0125   82.4684 N   0  0  0  0  0  0  0  0  0  0  0  0
    0.3619   43.3089   82.4092 C   0  0  0  0  0  0  0  0  0  0  0  0
    0.0088   43.8990   83.4215 O   0  0  0  0  0  0  0  0  0  0  0  0
    0.9305   41.5815   81.5488 H   0  0  0  0  0  0  0  0  0  0  0  0
    0.8159   41.1580   83.6255 C   0  0  0  0  0  0  0  0  0  0  0  0
   -0.3492   40.8189   84.5740 C   0  0  0  0  0  0  0  0  0  0  0  0
   -0.5354   39.4216   84.9093 N   0  0  0  0  0  0  0  0  0  0  0  0
    0.3298   38.6325   85.4552 C   0  0  0  0  0  0  0  0  0  0  0  0
    1.7568   38.9540   85.6723 C   0  0  0  0  0  0  0  0  0  0  0  0
    2.5691   38.2306   86.4706 N   0  0  0  0  0  0  0  0  0  0  0  0
    3.8237   38.7069   86.3221 C   0  0  0  0  0  0  0  0  0  0  0  0
    3.8204   39.7543   85.4215 C   0  0  0  0  0  0  0  0  0  0  0  0
    2.5017   39.9024   85.0090 C   0  0  0  0  0  0  0  0  0  0  0  0
    2.0614   40.7645   83.9168 C   0  0  0  0  0  0  0  0  0  0  0  0
    2.2879   37.4253   87.0729 H   0  0  0  0  0  0  0  0  0  0  0  0
    4.9965   40.5196   84.9314 C   0  0  0  0  0  0  0  0  0  0  0  0
    5.9624   39.9872   84.0711 C   0  0  0  0  0  0  0  0  0  0  0  0
    7.1719   41.1206   83.8561 S   0  0  0  0  0  0  0  0  0  0  0  0
    6.4314   42.2523   84.8515 C   0  0  0  0  0  0  0  0  0  0  0  0
    5.2528   41.7935   85.3418 N   0  0  0  0  0  0  0  0  0  0  0  0
    7.0570   43.5364   85.2200 C   0  0  0  0  0  0  0  0  0  0  0  0
    7.9769   44.1176   84.4282 C   0  0  0  0  0  0  0  0  0  0  0  0
    8.5626   45.4445   84.8126 C   0  0  0  0  0  0  0  0  0  0  0  0
    8.0442   46.0191   86.0332 N   0  0  0  0  0  0  0  0  0  0  0  0
    7.0737   45.3262   86.8043 C   0  0  0  0  0  0  0  0  0  0  0  0
    6.6280   44.1785   86.4223 N   0  0  0  0  0  0  0  0  0  0  0  0
    8.3838   46.9385   86.3495 H   0  0  0  0  0  0  0  0  0  0  0  0
  7  8  1  0
  7 16  2  0
  8  9  1  0
  9 10  2  0
 10 11  1  0
 11 12  1  0
 11 15  2  0
 12 13  1  0
 13 14  2  0
 14 18  1  0
 14 15  1  0
 18 19  2  0
 18 22  1  0
 19 20  1  0
 20 21  1  0
 21 23  1  0
 21 22  2  0
 23 24  2  0
 23 28  1  0
 24 25  1  0
 25 26  1  0
 26 27  1  0
 27 28  2  0
 15 16  1  0
  3  4  1  0
  4  5  2  0
  4  1  1  0
  1  2  2  0
  7  3  1  0
 12 17  1  0
 26 29  1  0
  3  6  1  0
M  END
> <minimizedAffinity>
-2.64999

> <CNNscore>
0.4736365378

> <CNNaffinity>
4.3307609558

> <CNN_VS>
2.0512065887

$$$$
_Inhib_32_acrylamide


 29 32  0  0  0  0  0  0  0  0999 V2000
   -2.7446   46.9852   80.9461 C   0  0  0  0  0  0  0  0  0  0  0  0
   -1.9149   47.2587   81.9586 C   0  0  0  0  0  0  0  0  0  0  0  0
   -1.6110   44.9897   80.1067 N   0  0  0  0  0  0  0  0  0  0  0  0
   -2.5015   45.9714   79.8625 C   0  0  0  0  0  0  0  0  0  0  0  0
   -3.0674   46.0379   78.7796 O   0  0  0  0  0  0  0  0  0  0  0  0
   -1.1277   45.0656   81.0199 H   0  0  0  0  0  0  0  0  0  0  0  0
   -1.2223   43.8977   79.2501 C   0  0  0  0  0  0  0  0  0  0  0  0
   -0.9581   42.4532   79.7146 C   0  0  0  0  0  0  0  0  0  0  0  0
   -1.5874   41.3943   78.9515 N   0  0  0  0  0  0  0  0  0  0  0  0
   -1.4563   41.1658   77.6867 C   0  0  0  0  0  0  0  0  0  0  0  0
   -0.7815   42.0641   76.7252 C   0  0  0  0  0  0  0  0  0  0  0  0
   -0.4290   41.6887   75.4780 N   0  0  0  0  0  0  0  0  0  0  0  0
    0.0217   42.7841   74.8299 C   0  0  0  0  0  0  0  0  0  0  0  0
   -0.0350   43.8786   75.6707 C   0  0  0  0  0  0  0  0  0  0  0  0
   -0.5514   43.4129   76.8737 C   0  0  0  0  0  0  0  0  0  0  0  0
   -0.9631   44.2604   77.9884 C   0  0  0  0  0  0  0  0  0  0  0  0
   -0.5170   40.7307   75.0720 H   0  0  0  0  0  0  0  0  0  0  0  0
    0.3118   45.2849   75.3371 C   0  0  0  0  0  0  0  0  0  0  0  0
   -0.5524   46.1568   74.6665 C   0  0  0  0  0  0  0  0  0  0  0  0
    0.2514   47.5942   74.3815 S   0  0  0  0  0  0  0  0  0  0  0  0
    1.6646   47.0712   75.1226 C   0  0  0  0  0  0  0  0  0  0  0  0
    1.5382   45.8119   75.6106 N   0  0  0  0  0  0  0  0  0  0  0  0
    2.9113   47.8599   75.1326 C   0  0  0  0  0  0  0  0  0  0  0  0
    3.7556   47.8182   76.1796 C   0  0  0  0  0  0  0  0  0  0  0  0
    5.0354   48.6004   76.1392 C   0  0  0  0  0  0  0  0  0  0  0  0
    5.2726   49.3356   74.9176 N   0  0  0  0  0  0  0  0  0  0  0  0
    4.3179   49.3201   73.8665 C   0  0  0  0  0  0  0  0  0  0  0  0
    3.2289   48.6393   73.9778 N   0  0  0  0  0  0  0  0  0  0  0  0
    6.1406   49.8791   74.8089 H   0  0  0  0  0  0  0  0  0  0  0  0
  7  8  1  0
  7 16  2  0
  8  9  1  0
  9 10  2  0
 10 11  1  0
 11 12  1  0
 11 15  2  0
 12 13  1  0
 13 14  2  0
 14 18  1  0
 14 15  1  0
 18 19  2  0
 18 22  1  0
 19 20  1  0
 20 21  1  0
 21 23  1  0
 21 22  2  0
 23 24  2  0
 23 28  1  0
 24 25  1  0
 25 26  1  0
 26 27  1  0
 27 28  2  0
 15 16  1  0
  3  4  1  0
  4  5  2  0
  4  1  1  0
  1  2  2  0
  7  3  1  0
 12 17  1  0
 26 29  1  0
  3  6  1  0
M  END
> <minimizedAffinity>
-0.39487

> <CNNscore>
0.4597004056

> <CNNaffinity>
4.3065013885

> <CNN_VS>
1.9797004461

$$$$
_Inhib_32_acrylamide


 29 32  0  0  0  0  0  0  0  0999 V2000
   -1.0037   46.6707   79.5545 C   0  0  0  0  0  0  0  0  0  0  0  0
   -1.4493   46.8181   80.8066 C   0  0  0  0  0  0  0  0  0  0  0  0
    0.4465   44.9993   78.5177 N   0  0  0  0  0  0  0  0  0  0  0  0
    0.3623   46.1802   79.1618 C   0  0  0  0  0  0  0  0  0  0  0  0
    1.3757   46.8097   79.4343 O   0  0  0  0  0  0  0  0  0  0  0  0
   -0.4577   44.5066   78.4042 H   0  0  0  0  0  0  0  0  0  0  0  0
    1.6225   44.3301   78.0212 C   0  0  0  0  0  0  0  0  0  0  0  0
    2.3809   44.7022   76.7334 C   0  0  0  0  0  0  0  0  0  0  0  0
    3.8216   44.8211   76.8328 N   0  0  0  0  0  0  0  0  0  0  0  0
    4.6496   43.9128   77.2310 C   0  0  0  0  0  0  0  0  0  0  0  0
    4.2675   42.6252   77.8498 C   0  0  0  0  0  0  0  0  0  0  0  0
    5.1237   41.5952   78.0129 N   0  0  0  0  0  0  0  0  0  0  0  0
    4.4933   40.6461   78.7373 C   0  0  0  0  0  0  0  0  0  0  0  0
    3.2126   41.0659   79.0404 C   0  0  0  0  0  0  0  0  0  0  0  0
    3.0782   42.3284   78.4758 C   0  0  0  0  0  0  0  0  0  0  0  0
    1.9543   43.2303   78.7076 C   0  0  0  0  0  0  0  0  0  0  0  0
    6.1088   41.5491   77.6696 H   0  0  0  0  0  0  0  0  0  0  0  0
    2.2063   40.3501   79.8675 C   0  0  0  0  0  0  0  0  0  0  0  0
    2.5290   39.6070   81.0078 C   0  0  0  0  0  0  0  0  0  0  0  0
    1.1417   38.8685   81.5767 S   0  0  0  0  0  0  0  0  0  0  0  0
    0.1750   39.5187   80.3673 C   0  0  0  0  0  0  0  0  0  0  0  0
    0.8861   40.3163   79.5318 N   0  0  0  0  0  0  0  0  0  0  0  0
   -1.2462   39.1644   80.1910 C   0  0  0  0  0  0  0  0  0  0  0  0
   -1.6270   38.2243   79.3068 C   0  0  0  0  0  0  0  0  0  0  0  0
   -3.0770   37.8587   79.1827 C   0  0  0  0  0  0  0  0  0  0  0  0
   -3.9695   38.5550   80.0814 N   0  0  0  0  0  0  0  0  0  0  0  0
   -3.4719   39.5357   80.9798 C   0  0  0  0  0  0  0  0  0  0  0  0
   -2.2135   39.8127   81.0191 N   0  0  0  0  0  0  0  0  0  0  0  0
   -4.9767   38.3409   80.0684 H   0  0  0  0  0  0  0  0  0  0  0  0
  7  8  1  0
  7 16  2  0
  8  9  1  0
  9 10  2  0
 10 11  1  0
 11 12  1  0
 11 15  2  0
 12 13  1  0
 13 14  2  0
 14 18  1  0
 14 15  1  0
 18 19  2  0
 18 22  1  0
 19 20  1  0
 20 21  1  0
 21 23  1  0
 21 22  2  0
 23 24  2  0
 23 28  1  0
 24 25  1  0
 25 26  1  0
 26 27  1  0
 27 28  2  0
 15 16  1  0
  3  4  1  0
  4  5  2  0
  4  1  1  0
  1  2  2  0
  7  3  1  0
 12 17  1  0
 26 29  1  0
  3  6  1  0
M  END
> <minimizedAffinity>
-1.85325

> <CNNscore>
0.4529953301

> <CNNaffinity>
4.1939411163

> <CNN_VS>
1.8998357058

$$$$
_Inhib_32_acrylamide


 29 32  0  0  0  0  0  0  0  0999 V2000
    0.7881   43.9070   82.3009 C   0  0  0  0  0  0  0  0  0  0  0  0
    0.3656   44.9660   82.9997 C   0  0  0  0  0  0  0  0  0  0  0  0
    0.9501   42.4979   80.3110 N   0  0  0  0  0  0  0  0  0  0  0  0
    0.5632   43.6793   80.8318 C   0  0  0  0  0  0  0  0  0  0  0  0
    0.0698   44.5394   80.1147 O   0  0  0  0  0  0  0  0  0  0  0  0
    1.4282   41.8691   80.9812 H   0  0  0  0  0  0  0  0  0  0  0  0
    0.8256   42.0325   78.9526 C   0  0  0  0  0  0  0  0  0  0  0  0
   -0.4409   42.1508   78.0843 C   0  0  0  0  0  0  0  0  0  0  0  0
   -0.2681   42.6639   76.7403 N   0  0  0  0  0  0  0  0  0  0  0  0
    0.4956   42.1804   75.8172 C   0  0  0  0  0  0  0  0  0  0  0  0
    1.4964   41.1098   76.0149 C   0  0  0  0  0  0  0  0  0  0  0  0
    2.0868   40.4467   74.9989 N   0  0  0  0  0  0  0  0  0  0  0  0
    3.0447   39.6541   75.5255 C   0  0  0  0  0  0  0  0  0  0  0  0
    3.0689   39.8029   76.8987 C   0  0  0  0  0  0  0  0  0  0  0  0
    2.0834   40.7345   77.2018 C   0  0  0  0  0  0  0  0  0  0  0  0
    1.8833   41.3395   78.5149 C   0  0  0  0  0  0  0  0  0  0  0  0
    1.8675   40.5486   73.9831 H   0  0  0  0  0  0  0  0  0  0  0  0
    4.0075   39.1586   77.8543 C   0  0  0  0  0  0  0  0  0  0  0  0
    5.1233   38.4133   77.4594 C   0  0  0  0  0  0  0  0  0  0  0  0
    5.8441   37.7652   78.8211 S   0  0  0  0  0  0  0  0  0  0  0  0
    4.7266   38.4547   79.8678 C   0  0  0  0  0  0  0  0  0  0  0  0
    3.8080   39.1979   79.2017 N   0  0  0  0  0  0  0  0  0  0  0  0
    4.7023   38.1822   81.3175 C   0  0  0  0  0  0  0  0  0  0  0  0
    5.7151   38.5644   82.1169 C   0  0  0  0  0  0  0  0  0  0  0  0
    5.6390   38.3086   83.5935 C   0  0  0  0  0  0  0  0  0  0  0  0
    4.4223   37.6757   84.0496 N   0  0  0  0  0  0  0  0  0  0  0  0
    3.4087   37.3059   83.1264 C   0  0  0  0  0  0  0  0  0  0  0  0
    3.5500   37.5401   81.8667 N   0  0  0  0  0  0  0  0  0  0  0  0
    4.2897   37.4878   85.0535 H   0  0  0  0  0  0  0  0  0  0  0  0
  7  8  1  0
  7 16  2  0
  8  9  1  0
  9 10  2  0
 10 11  1  0
 11 12  1  0
 11 15  2  0
 12 13  1  0
 13 14  2  0
 14 18  1  0
 14 15  1  0
 18 19  2  0
 18 22  1  0
 19 20  1  0
 20 21  1  0
 21 23  1  0
 21 22  2  0
 23 24  2  0
 23 28  1  0
 24 25  1  0
 25 26  1  0
 26 27  1  0
 27 28  2  0
 15 16  1  0
  3  4  1  0
  4  5  2  0
  4  1  1  0
  1  2  2  0
  7  3  1  0
 12 17  1  0
 26 29  1  0
  3  6  1  0
M  END
> <minimizedAffinity>
0.18981

> <CNNscore>
0.4514275789

> <CNNaffinity>
4.0784645081

> <CNN_VS>
1.8411313295

$$$$
_Inhib_32_acrylamide


 29 32  0  0  0  0  0  0  0  0999 V2000
    1.0038   44.0261   82.1484 C   0  0  0  0  0  0  0  0  0  0  0  0
    0.3968   44.9365   82.9171 C   0  0  0  0  0  0  0  0  0  0  0  0
   -0.2271   44.0227   80.0374 N   0  0  0  0  0  0  0  0  0  0  0  0
    0.9751   43.9877   80.6456 C   0  0  0  0  0  0  0  0  0  0  0  0
    2.0008   43.9014   79.9838 O   0  0  0  0  0  0  0  0  0  0  0  0
   -1.0361   44.0154   80.6845 H   0  0  0  0  0  0  0  0  0  0  0  0
   -0.5188   44.0202   78.6259 C   0  0  0  0  0  0  0  0  0  0  0  0
   -1.6275   44.8445   77.9452 C   0  0  0  0  0  0  0  0  0  0  0  0
   -1.2560   45.5877   76.7581 N   0  0  0  0  0  0  0  0  0  0  0  0
   -0.7433   45.1105   75.6725 C   0  0  0  0  0  0  0  0  0  0  0  0
   -0.2543   43.7256   75.4994 C   0  0  0  0  0  0  0  0  0  0  0  0
    0.0285   43.1814   74.2976 N   0  0  0  0  0  0  0  0  0  0  0  0
    0.5871   41.9714   74.5143 C   0  0  0  0  0  0  0  0  0  0  0  0
    0.6603   41.7291   75.8723 C   0  0  0  0  0  0  0  0  0  0  0  0
    0.1269   42.8523   76.4926 C   0  0  0  0  0  0  0  0  0  0  0  0
    0.1770   43.1155   77.9273 C   0  0  0  0  0  0  0  0  0  0  0  0
   -0.1258   43.6257   73.3653 H   0  0  0  0  0  0  0  0  0  0  0  0
    1.2579   40.5437   76.5409 C   0  0  0  0  0  0  0  0  0  0  0  0
    0.5165   39.6181   77.2827 C   0  0  0  0  0  0  0  0  0  0  0  0
    1.5680   38.5110   77.9627 S   0  0  0  0  0  0  0  0  0  0  0  0
    2.9272   39.2328   77.2906 C   0  0  0  0  0  0  0  0  0  0  0  0
    2.5997   40.3066   76.5294 N   0  0  0  0  0  0  0  0  0  0  0  0
    4.3047   38.8007   77.5938 C   0  0  0  0  0  0  0  0  0  0  0  0
    4.6273   38.2882   78.7956 C   0  0  0  0  0  0  0  0  0  0  0  0
    6.0287   37.8197   79.0564 C   0  0  0  0  0  0  0  0  0  0  0  0
    6.9380   37.9369   77.9391 N   0  0  0  0  0  0  0  0  0  0  0  0
    6.5037   38.4953   76.7078 C   0  0  0  0  0  0  0  0  0  0  0  0
    5.2871   38.8952   76.5604 N   0  0  0  0  0  0  0  0  0  0  0  0
    7.9116   37.6158   78.0371 H   0  0  0  0  0  0  0  0  0  0  0  0
  7  8  1  0
  7 16  2  0
  8  9  1  0
  9 10  2  0
 10 11  1  0
 11 12  1  0
 11 15  2  0
 12 13  1  0
 13 14  2  0
 14 18  1  0
 14 15  1  0
 18 19  2  0
 18 22  1  0
 19 20  1  0
 20 21  1  0
 21 23  1  0
 21 22  2  0
 23 24  2  0
 23 28  1  0
 24 25  1  0
 25 26  1  0
 26 27  1  0
 27 28  2  0
 15 16  1  0
  3  4  1  0
  4  5  2  0
  4  1  1  0
  1  2  2  0
  7  3  1  0
 12 17  1  0
 26 29  1  0
  3  6  1  0
M  END
> <minimizedAffinity>
-1.08565

> <CNNscore>
0.4319286346

> <CNNaffinity>
4.1133785248

> <CNN_VS>
1.7766859531

$$$$
_Inhib_32_acrylamide


 29 32  0  0  0  0  0  0  0  0999 V2000
   -0.9606   45.5979   79.6168 C   0  0  0  0  0  0  0  0  0  0  0  0
   -1.1509   46.5258   80.5607 C   0  0  0  0  0  0  0  0  0  0  0  0
   -0.6234   43.1861   79.4145 N   0  0  0  0  0  0  0  0  0  0  0  0
   -0.0910   44.3784   79.7484 C   0  0  0  0  0  0  0  0  0  0  0  0
    1.0564   44.4476   80.1683 O   0  0  0  0  0  0  0  0  0  0  0  0
   -1.6235   43.2221   79.1469 H   0  0  0  0  0  0  0  0  0  0  0  0
    0.0027   41.8879   79.4308 C   0  0  0  0  0  0  0  0  0  0  0  0
    1.4331   41.5840   78.9475 C   0  0  0  0  0  0  0  0  0  0  0  0
    2.2674   40.7915   79.8282 N   0  0  0  0  0  0  0  0  0  0  0  0
    2.0135   39.6087   80.2814 C   0  0  0  0  0  0  0  0  0  0  0  0
    0.7215   38.9029   80.1411 C   0  0  0  0  0  0  0  0  0  0  0  0
    0.5633   37.5854   80.3856 N   0  0  0  0  0  0  0  0  0  0  0  0
   -0.7555   37.3072   80.3072 C   0  0  0  0  0  0  0  0  0  0  0  0
   -1.4567   38.4578   80.0026 C   0  0  0  0  0  0  0  0  0  0  0  0
   -0.5098   39.4699   79.9030 C   0  0  0  0  0  0  0  0  0  0  0  0
   -0.8180   40.8915   79.7835 C   0  0  0  0  0  0  0  0  0  0  0  0
    1.3188   36.9052   80.6244 H   0  0  0  0  0  0  0  0  0  0  0  0
   -2.9308   38.6044   79.8815 C   0  0  0  0  0  0  0  0  0  0  0  0
   -3.5743   39.0097   78.7076 C   0  0  0  0  0  0  0  0  0  0  0  0
   -5.2095   39.1627   79.0181 S   0  0  0  0  0  0  0  0  0  0  0  0
   -5.0529   38.7034   80.6257 C   0  0  0  0  0  0  0  0  0  0  0  0
   -3.7663   38.4108   80.9404 N   0  0  0  0  0  0  0  0  0  0  0  0
   -6.1727   38.7285   81.5859 C   0  0  0  0  0  0  0  0  0  0  0  0
   -7.2661   39.4809   81.3638 C   0  0  0  0  0  0  0  0  0  0  0  0
   -8.4047   39.4507   82.3406 C   0  0  0  0  0  0  0  0  0  0  0  0
   -8.2328   38.5574   83.4637 N   0  0  0  0  0  0  0  0  0  0  0  0
   -7.0382   37.8045   83.6134 C   0  0  0  0  0  0  0  0  0  0  0  0
   -6.0913   37.8944   82.7432 N   0  0  0  0  0  0  0  0  0  0  0  0
   -8.9821   38.4679   84.1645 H   0  0  0  0  0  0  0  0  0  0  0  0
  7  8  1  0
  7 16  2  0
  8  9  1  0
  9 10  2  0
 10 11  1  0
 11 12  1  0
 11 15  2  0
 12 13  1  0
 13 14  2  0
 14 18  1  0
 14 15  1  0
 18 19  2  0
 18 22  1  0
 19 20  1  0
 20 21  1  0
 21 23  1  0
 21 22  2  0
 23 24  2  0
 23 28  1  0
 24 25  1  0
 25 26  1  0
 26 27  1  0
 27 28  2  0
 15 16  1  0
  3  4  1  0
  4  5  2  0
  4  1  1  0
  1  2  2  0
  7  3  1  0
 12 17  1  0
 26 29  1  0
  3  6  1  0
M  END
> <minimizedAffinity>
-3.53351

> <CNNscore>
0.4146321714

> <CNNaffinity>
4.6669759750

> <CNN_VS>
1.9350783825

$$$$
_Inhib_32_acrylamide


 29 32  0  0  0  0  0  0  0  0999 V2000
   -1.6740   46.4282   79.7725 C   0  0  0  0  0  0  0  0  0  0  0  0
   -1.5952   46.9596   80.9971 C   0  0  0  0  0  0  0  0  0  0  0  0
   -1.3170   44.1257   79.0361 N   0  0  0  0  0  0  0  0  0  0  0  0
   -0.7821   45.3481   79.2260 C   0  0  0  0  0  0  0  0  0  0  0  0
    0.3996   45.5510   78.9814 O   0  0  0  0  0  0  0  0  0  0  0  0
   -2.3010   44.0344   79.3469 H   0  0  0  0  0  0  0  0  0  0  0  0
   -0.6853   42.9421   78.5094 C   0  0  0  0  0  0  0  0  0  0  0  0
   -0.3205   42.7114   77.0309 C   0  0  0  0  0  0  0  0  0  0  0  0
    1.0162   42.2253   76.7542 N   0  0  0  0  0  0  0  0  0  0  0  0
    1.5579   41.1436   77.2074 C   0  0  0  0  0  0  0  0  0  0  0  0
    0.9808   40.2787   78.2590 C   0  0  0  0  0  0  0  0  0  0  0  0
    1.4265   39.0333   78.5254 N   0  0  0  0  0  0  0  0  0  0  0  0
    0.7850   38.5934   79.6291 C   0  0  0  0  0  0  0  0  0  0  0  0
   -0.0896   39.5642   80.0771 C   0  0  0  0  0  0  0  0  0  0  0  0
    0.0442   40.6355   79.2023 C   0  0  0  0  0  0  0  0  0  0  0  0
   -0.5490   41.9541   79.4016 C   0  0  0  0  0  0  0  0  0  0  0  0
    2.1590   38.5116   77.9949 H   0  0  0  0  0  0  0  0  0  0  0  0
   -0.9450   39.5095   81.2915 C   0  0  0  0  0  0  0  0  0  0  0  0
   -0.4445   39.5940   82.5949 C   0  0  0  0  0  0  0  0  0  0  0  0
   -1.7063   39.3738   83.6688 S   0  0  0  0  0  0  0  0  0  0  0  0
   -2.8472   39.1866   82.4509 C   0  0  0  0  0  0  0  0  0  0  0  0
   -2.2907   39.3077   81.2198 N   0  0  0  0  0  0  0  0  0  0  0  0
   -4.2541   38.8265   82.7102 C   0  0  0  0  0  0  0  0  0  0  0  0
   -4.5845   37.6290   83.2276 C   0  0  0  0  0  0  0  0  0  0  0  0
   -6.0219   37.3113   83.5179 C   0  0  0  0  0  0  0  0  0  0  0  0
   -6.9598   38.3734   83.2332 N   0  0  0  0  0  0  0  0  0  0  0  0
   -6.5141   39.6047   82.6839 C   0  0  0  0  0  0  0  0  0  0  0  0
   -5.2633   39.8019   82.4420 N   0  0  0  0  0  0  0  0  0  0  0  0
   -7.9619   38.2356   83.4270 H   0  0  0  0  0  0  0  0  0  0  0  0
  7  8  1  0
  7 16  2  0
  8  9  1  0
  9 10  2  0
 10 11  1  0
 11 12  1  0
 11 15  2  0
 12 13  1  0
 13 14  2  0
 14 18  1  0
 14 15  1  0
 18 19  2  0
 18 22  1  0
 19 20  1  0
 20 21  1  0
 21 23  1  0
 21 22  2  0
 23 24  2  0
 23 28  1  0
 24 25  1  0
 25 26  1  0
 26 27  1  0
 27 28  2  0
 15 16  1  0
  3  4  1  0
  4  5  2  0
  4  1  1  0
  1  2  2  0
  7  3  1  0
 12 17  1  0
 26 29  1  0
  3  6  1  0
M  END
> <minimizedAffinity>
-3.08718

> <CNNscore>
0.4107932150

> <CNNaffinity>
4.4808893204

> <CNN_VS>
1.8407189846

$$$$
_Inhib_32_acrylamide


 29 32  0  0  0  0  0  0  0  0999 V2000
   -2.9760   46.5175   83.0509 C   0  0  0  0  0  0  0  0  0  0  0  0
   -1.7679   47.0905   83.0310 C   0  0  0  0  0  0  0  0  0  0  0  0
   -2.5557   44.8448   81.3198 N   0  0  0  0  0  0  0  0  0  0  0  0
   -3.3674   45.2702   82.3081 C   0  0  0  0  0  0  0  0  0  0  0  0
   -4.3996   44.6649   82.5644 O   0  0  0  0  0  0  0  0  0  0  0  0
   -1.7506   45.4676   81.1273 H   0  0  0  0  0  0  0  0  0  0  0  0
   -2.6953   43.6791   80.4836 C   0  0  0  0  0  0  0  0  0  0  0  0
   -3.4804   43.6228   79.1598 C   0  0  0  0  0  0  0  0  0  0  0  0
   -2.8130   43.0119   78.0280 N   0  0  0  0  0  0  0  0  0  0  0  0
   -2.3343   41.8137   77.9634 C   0  0  0  0  0  0  0  0  0  0  0  0
   -2.2035   40.8867   79.1081 C   0  0  0  0  0  0  0  0  0  0  0  0
   -1.9514   39.5681   78.9724 N   0  0  0  0  0  0  0  0  0  0  0  0
   -1.7478   39.0584   80.2060 C   0  0  0  0  0  0  0  0  0  0  0  0
   -1.8759   40.0588   81.1499 C   0  0  0  0  0  0  0  0  0  0  0  0
   -2.1616   41.2203   80.4427 C   0  0  0  0  0  0  0  0  0  0  0  0
   -2.1895   42.5614   81.0180 C   0  0  0  0  0  0  0  0  0  0  0  0
   -1.8919   39.0387   78.0743 H   0  0  0  0  0  0  0  0  0  0  0  0
   -1.6738   39.9384   82.6175 C   0  0  0  0  0  0  0  0  0  0  0  0
   -2.4402   40.6274   83.5633 C   0  0  0  0  0  0  0  0  0  0  0  0
   -1.8238   40.3128   85.0847 S   0  0  0  0  0  0  0  0  0  0  0  0
   -0.6119   39.3084   84.4997 C   0  0  0  0  0  0  0  0  0  0  0  0
   -0.6716   39.1843   83.1502 N   0  0  0  0  0  0  0  0  0  0  0  0
    0.4425   38.7315   85.3552 C   0  0  0  0  0  0  0  0  0  0  0  0
    1.3272   37.8418   84.8689 C   0  0  0  0  0  0  0  0  0  0  0  0
    2.4128   37.3065   85.7557 C   0  0  0  0  0  0  0  0  0  0  0  0
    2.4318   37.8378   87.0997 N   0  0  0  0  0  0  0  0  0  0  0  0
    1.4510   38.7738   87.5219 C   0  0  0  0  0  0  0  0  0  0  0  0
    0.5342   39.1764   86.7100 N   0  0  0  0  0  0  0  0  0  0  0  0
    3.1615   37.5327   87.7593 H   0  0  0  0  0  0  0  0  0  0  0  0
  7  8  1  0
  7 16  2  0
  8  9  1  0
  9 10  2  0
 10 11  1  0
 11 12  1  0
 11 15  2  0
 12 13  1  0
 13 14  2  0
 14 18  1  0
 14 15  1  0
 18 19  2  0
 18 22  1  0
 19 20  1  0
 20 21  1  0
 21 23  1  0
 21 22  2  0
 23 24  2  0
 23 28  1  0
 24 25  1  0
 25 26  1  0
 26 27  1  0
 27 28  2  0
 15 16  1  0
  3  4  1  0
  4  5  2  0
  4  1  1  0
  1  2  2  0
  7  3  1  0
 12 17  1  0
 26 29  1  0
  3  6  1  0
M  END
> <minimizedAffinity>
5.81801

> <CNNscore>
0.4039089084

> <CNNaffinity>
4.5171432495

> <CNN_VS>
1.8245143890

$$$$
_Inhib_32_acrylamide


 29 32  0  0  0  0  0  0  0  0999 V2000
   -2.7226   46.3753   83.5962 C   0  0  0  0  0  0  0  0  0  0  0  0
   -1.7851   47.1086   82.9866 C   0  0  0  0  0  0  0  0  0  0  0  0
   -3.4427   44.2904   82.5445 N   0  0  0  0  0  0  0  0  0  0  0  0
   -2.8094   44.8743   83.5810 C   0  0  0  0  0  0  0  0  0  0  0  0
   -2.3472   44.1931   84.4865 O   0  0  0  0  0  0  0  0  0  0  0  0
   -3.8676   44.9540   81.8719 H   0  0  0  0  0  0  0  0  0  0  0  0
   -3.6385   42.8855   82.2890 C   0  0  0  0  0  0  0  0  0  0  0  0
   -2.5475   41.8030   82.3873 C   0  0  0  0  0  0  0  0  0  0  0  0
   -2.8817   40.6012   83.1247 N   0  0  0  0  0  0  0  0  0  0  0  0
   -3.8643   39.7955   82.8915 C   0  0  0  0  0  0  0  0  0  0  0  0
   -4.9628   40.0479   81.9341 C   0  0  0  0  0  0  0  0  0  0  0  0
   -5.8211   39.0934   81.5184 N   0  0  0  0  0  0  0  0  0  0  0  0
   -6.7762   39.6930   80.7760 C   0  0  0  0  0  0  0  0  0  0  0  0
   -6.5281   41.0502   80.7066 C   0  0  0  0  0  0  0  0  0  0  0  0
   -5.3747   41.2687   81.4500 C   0  0  0  0  0  0  0  0  0  0  0  0
   -4.8506   42.5825   81.8095 C   0  0  0  0  0  0  0  0  0  0  0  0
   -5.7768   38.0767   81.7527 H   0  0  0  0  0  0  0  0  0  0  0  0
   -7.3642   42.0818   80.0389 C   0  0  0  0  0  0  0  0  0  0  0  0
   -8.7545   41.9899   79.9153 C   0  0  0  0  0  0  0  0  0  0  0  0
   -9.2981   43.2817   79.0044 S   0  0  0  0  0  0  0  0  0  0  0  0
   -7.7585   43.9209   78.8021 C   0  0  0  0  0  0  0  0  0  0  0  0
   -6.8192   43.1760   79.4367 N   0  0  0  0  0  0  0  0  0  0  0  0
   -7.4742   45.0873   77.9448 C   0  0  0  0  0  0  0  0  0  0  0  0
   -6.4356   45.0883   77.0891 C   0  0  0  0  0  0  0  0  0  0  0  0
   -6.1999   46.2750   76.2016 C   0  0  0  0  0  0  0  0  0  0  0  0
   -7.1655   47.3429   76.3273 N   0  0  0  0  0  0  0  0  0  0  0  0
   -8.2290   47.2506   77.2637 C   0  0  0  0  0  0  0  0  0  0  0  0
   -8.3598   46.2068   78.0089 N   0  0  0  0  0  0  0  0  0  0  0  0
   -7.0805   48.1809   75.7347 H   0  0  0  0  0  0  0  0  0  0  0  0
  7  8  1  0
  7 16  2  0
  8  9  1  0
  9 10  2  0
 10 11  1  0
 11 12  1  0
 11 15  2  0
 12 13  1  0
 13 14  2  0
 14 18  1  0
 14 15  1  0
 18 19  2  0
 18 22  1  0
 19 20  1  0
 20 21  1  0
 21 23  1  0
 21 22  2  0
 23 24  2  0
 23 28  1  0
 24 25  1  0
 25 26  1  0
 26 27  1  0
 27 28  2  0
 15 16  1  0
  3  4  1  0
  4  5  2  0
  4  1  1  0
  1  2  2  0
  7  3  1  0
 12 17  1  0
 26 29  1  0
  3  6  1  0
M  END
> <minimizedAffinity>
-2.71654

> <CNNscore>
0.4036279619

> <CNNaffinity>
5.4726114273

> <CNN_VS>
2.2088990211

$$$$
_Inhib_32_acrylamide


 29 32  0  0  0  0  0  0  0  0999 V2000
   -2.1418   46.3967   80.0780 C   0  0  0  0  0  0  0  0  0  0  0  0
   -1.6864   47.0473   81.1539 C   0  0  0  0  0  0  0  0  0  0  0  0
   -0.9002   44.3169   80.4013 N   0  0  0  0  0  0  0  0  0  0  0  0
   -1.6189   45.0858   79.5594 C   0  0  0  0  0  0  0  0  0  0  0  0
   -1.8098   44.7274   78.4050 O   0  0  0  0  0  0  0  0  0  0  0  0
   -0.7269   44.7427   81.3297 H   0  0  0  0  0  0  0  0  0  0  0  0
   -0.3147   43.0230   80.1559 C   0  0  0  0  0  0  0  0  0  0  0  0
    0.0529   41.9928   81.2402 C   0  0  0  0  0  0  0  0  0  0  0  0
   -0.3817   40.6279   81.0212 N   0  0  0  0  0  0  0  0  0  0  0  0
   -0.1015   39.8774   80.0076 C   0  0  0  0  0  0  0  0  0  0  0  0
    0.5673   40.3335   78.7700 C   0  0  0  0  0  0  0  0  0  0  0  0
    1.0803   39.4921   77.8483 N   0  0  0  0  0  0  0  0  0  0  0  0
    1.4752   40.2315   76.7899 C   0  0  0  0  0  0  0  0  0  0  0  0
    1.2196   41.5669   77.0337 C   0  0  0  0  0  0  0  0  0  0  0  0
    0.6376   41.6231   78.2942 C   0  0  0  0  0  0  0  0  0  0  0  0
    0.0295   42.8137   78.8798 C   0  0  0  0  0  0  0  0  0  0  0  0
    1.1350   38.4520   77.9224 H   0  0  0  0  0  0  0  0  0  0  0  0
    1.4474   42.7073   76.1080 C   0  0  0  0  0  0  0  0  0  0  0  0
    2.6892   43.0041   75.5367 C   0  0  0  0  0  0  0  0  0  0  0  0
    2.5509   44.4200   74.6593 S   0  0  0  0  0  0  0  0  0  0  0  0
    0.9223   44.6085   75.0232 C   0  0  0  0  0  0  0  0  0  0  0  0
    0.4606   43.5935   75.7955 N   0  0  0  0  0  0  0  0  0  0  0  0
    0.1392   45.7958   74.6315 C   0  0  0  0  0  0  0  0  0  0  0  0
   -1.1718   45.8935   74.9190 C   0  0  0  0  0  0  0  0  0  0  0  0
   -1.9289   47.1332   74.5431 C   0  0  0  0  0  0  0  0  0  0  0  0
   -1.1452   48.1674   73.9065 N   0  0  0  0  0  0  0  0  0  0  0  0
    0.2358   47.9694   73.6416 C   0  0  0  0  0  0  0  0  0  0  0  0
    0.8180   46.8689   73.9762 N   0  0  0  0  0  0  0  0  0  0  0  0
   -1.5925   49.0556   73.6391 H   0  0  0  0  0  0  0  0  0  0  0  0
  7  8  1  0
  7 16  2  0
  8  9  1  0
  9 10  2  0
 10 11  1  0
 11 12  1  0
 11 15  2  0
 12 13  1  0
 13 14  2  0
 14 18  1  0
 14 15  1  0
 18 19  2  0
 18 22  1  0
 19 20  1  0
 20 21  1  0
 21 23  1  0
 21 22  2  0
 23 24  2  0
 23 28  1  0
 24 25  1  0
 25 26  1  0
 26 27  1  0
 27 28  2  0
 15 16  1  0
  3  4  1  0
  4  5  2  0
  4  1  1  0
  1  2  2  0
  7  3  1  0
 12 17  1  0
 26 29  1  0
  3  6  1  0
M  END
> <minimizedAffinity>
-0.25676

> <CNNscore>
0.3768883049

> <CNNaffinity>
4.3231792450

> <CNN_VS>
1.6293556690

$$$$
