_Inhib_32_acrylamide
     RDKit          3D

  0  0  0  0  0  0  0  0  0  0999 V3000
M  V30 BEGIN CTAB
M  V30 COUNTS 29 32 0 0 0
M  V30 BEGIN ATOM
M  V30 1 C -0.971500 44.875200 79.943100 0
M  V30 2 C -0.714500 46.093800 80.430300 0
M  V30 3 N 0.205900 42.922600 80.822000 0
M  V30 4 C -0.958700 43.594900 80.731400 0
M  V30 5 O -1.971000 43.152200 81.257400 0
M  V30 6 H 0.984200 43.336500 80.277700 0
M  V30 7 C 0.481900 41.697600 81.529500 0
M  V30 8 C 0.099900 41.410500 82.993600 0
M  V30 9 N -0.548400 40.143300 83.265000 0
M  V30 10 C -0.089700 38.964700 83.001400 0
M  V30 11 C 1.114300 38.681800 82.190600 0
M  V30 12 N 1.716600 37.475200 82.149400 0
M  V30 13 C 2.681800 37.528400 81.206700 0
M  V30 14 C 2.706800 38.786400 80.636600 0
M  V30 15 C 1.703000 39.513300 81.265200 0
M  V30 16 C 1.243400 40.834000 80.847500 0
M  V30 17 H 1.464200 36.637700 82.719700 0
M  V30 18 C 3.576100 39.249700 79.523600 0
M  V30 19 C 4.846500 39.803400 79.713000 0
M  V30 20 S 5.440700 40.300700 78.232000 0
M  V30 21 C 4.075500 39.792400 77.396800 0
M  V30 22 N 3.164000 39.223800 78.225000 0
M  V30 23 C 3.868700 40.043000 75.957800 0
M  V30 24 C 2.667500 40.416000 75.479500 0
M  V30 25 C 2.502400 40.703500 74.016100 0
M  V30 26 N 3.703400 40.578700 73.221900 0
M  V30 27 C 4.927100 40.175100 73.818600 0
M  V30 28 N 4.991500 39.925800 75.081800 0
M  V30 29 H 3.671800 40.781100 72.212600 0
M  V30 END ATOM
M  V30 BEGIN BOND
M  V30 1 1 7 8
M  V30 2 2 7 16
M  V30 3 1 8 9
M  V30 4 2 9 10
M  V30 5 1 10 11
M  V30 6 1 11 12
M  V30 7 2 11 15
M  V30 8 1 12 13
M  V30 9 2 13 14
M  V30 10 1 14 18
M  V30 11 1 14 15
M  V30 12 2 18 19
M  V30 13 1 18 22
M  V30 14 1 19 20
M  V30 15 1 20 21
M  V30 16 1 21 23
M  V30 17 2 21 22
M  V30 18 2 23 24
M  V30 19 1 23 28
M  V30 20 1 24 25
M  V30 21 1 25 26
M  V30 22 1 26 27
M  V30 23 2 27 28
M  V30 24 1 15 16
M  V30 25 1 3 4
M  V30 26 2 4 5
M  V30 27 1 4 1
M  V30 28 2 1 2
M  V30 29 1 7 3
M  V30 30 1 12 17
M  V30 31 1 26 29
M  V30 32 1 3 6
M  V30 END BOND
M  V30 END CTAB
M  END
>  <minimizedAffinity>  (1) 
-2.08738

>  <CNNscore>  (1) 
0.6034960151

>  <CNNaffinity>  (1) 
4.2773380280

>  <CNN_VS>  (1) 
2.5813565254

$$$$
_Inhib_32_acrylamide
     RDKit          3D

  0  0  0  0  0  0  0  0  0  0999 V3000
M  V30 BEGIN CTAB
M  V30 COUNTS 29 32 0 0 0
M  V30 BEGIN ATOM
M  V30 1 C -1.738000 45.604600 79.910000 0
M  V30 2 C -1.250300 46.623500 80.625700 0
M  V30 3 N -1.144200 43.824000 81.474600 0
M  V30 4 C -1.582600 44.146300 80.241600 0
M  V30 5 O -1.818100 43.270200 79.420300 0
M  V30 6 H -0.897300 44.636100 82.068600 0
M  V30 7 C -0.935400 42.514100 82.038600 0
M  V30 8 C -1.012800 42.168100 83.537300 0
M  V30 9 N -1.796400 41.005000 83.901500 0
M  V30 10 C -1.629600 39.794500 83.482000 0
M  V30 11 C -0.716800 39.390000 82.391100 0
M  V30 12 N -0.366100 38.109400 82.151000 0
M  V30 13 C 0.347900 38.085600 81.005300 0
M  V30 14 C 0.464600 39.367000 80.502800 0
M  V30 15 C -0.219600 40.190900 81.388300 0
M  V30 16 C -0.519700 41.599900 81.154100 0
M  V30 17 H -0.625100 37.278400 82.727800 0
M  V30 18 C 1.120800 39.776500 79.233600 0
M  V30 19 C 0.483600 40.526900 78.240000 0
M  V30 20 S 1.515900 40.672700 76.933600 0
M  V30 21 C 2.739600 39.789000 77.669500 0
M  V30 22 N 2.388900 39.390500 78.917700 0
M  V30 23 C 3.989300 39.411900 76.982200 0
M  V30 24 C 4.226700 38.139900 76.612900 0
M  V30 25 C 5.489600 37.798300 75.878200 0
M  V30 26 N 6.361100 38.915700 75.593800 0
M  V30 27 C 6.024600 40.225000 76.028300 0
M  V30 28 N 4.929400 40.442500 76.672600 0
M  V30 29 H 7.236600 38.761200 75.073800 0
M  V30 END ATOM
M  V30 BEGIN BOND
M  V30 1 1 7 8
M  V30 2 2 7 16
M  V30 3 1 8 9
M  V30 4 2 9 10
M  V30 5 1 10 11
M  V30 6 1 11 12
M  V30 7 2 11 15
M  V30 8 1 12 13
M  V30 9 2 13 14
M  V30 10 1 14 18
M  V30 11 1 14 15
M  V30 12 2 18 19
M  V30 13 1 18 22
M  V30 14 1 19 20
M  V30 15 1 20 21
M  V30 16 1 21 23
M  V30 17 2 21 22
M  V30 18 2 23 24
M  V30 19 1 23 28
M  V30 20 1 24 25
M  V30 21 1 25 26
M  V30 22 1 26 27
M  V30 23 2 27 28
M  V30 24 1 15 16
M  V30 25 1 3 4
M  V30 26 2 4 5
M  V30 27 1 4 1
M  V30 28 2 1 2
M  V30 29 1 7 3
M  V30 30 1 12 17
M  V30 31 1 26 29
M  V30 32 1 3 6
M  V30 END BOND
M  V30 END CTAB
M  END
>  <minimizedAffinity>  (2) 
-0.52585

>  <CNNscore>  (2) 
0.5718261003

>  <CNNaffinity>  (2) 
4.3377103806

>  <CNN_VS>  (2) 
2.4804160595

$$$$
_Inhib_32_acrylamide
     RDKit          3D

  0  0  0  0  0  0  0  0  0  0999 V3000
M  V30 BEGIN CTAB
M  V30 COUNTS 29 32 0 0 0
M  V30 BEGIN ATOM
M  V30 1 C 0.361900 44.395100 80.438500 0
M  V30 2 C -0.216200 45.594800 80.559700 0
M  V30 3 N 0.792900 42.251900 81.530500 0
M  V30 4 C 0.954400 43.589600 81.561400 0
M  V30 5 O 1.544300 44.120000 82.493200 0
M  V30 6 H 0.212500 41.907500 80.744500 0
M  V30 7 C 1.278500 41.267900 82.464900 0
M  V30 8 C 2.731300 41.155600 82.963800 0
M  V30 9 N 2.924100 41.017400 84.393300 0
M  V30 10 C 2.437300 40.095600 85.156500 0
M  V30 11 C 1.422900 39.100200 84.747900 0
M  V30 12 N 1.128400 37.998900 85.469800 0
M  V30 13 C 0.066400 37.398700 84.891100 0
M  V30 14 C -0.325700 38.117900 83.778800 0
M  V30 15 C 0.539900 39.201800 83.697100 0
M  V30 16 C 0.378800 40.330900 82.786400 0
M  V30 17 H 1.612100 37.681200 86.339000 0
M  V30 18 C -1.484700 37.836700 82.891700 0
M  V30 19 C -1.358600 37.395800 81.570300 0
M  V30 20 S -2.881000 37.312800 80.885400 0
M  V30 21 C -3.652300 37.829400 82.284700 0
M  V30 22 N -2.769800 38.051700 83.290500 0
M  V30 23 C -5.099800 38.105400 82.354500 0
M  V30 24 C -5.925400 37.325000 83.075800 0
M  V30 25 C -7.386000 37.658600 83.159100 0
M  V30 26 N -7.788500 38.854100 82.453600 0
M  V30 27 C -6.841700 39.612400 81.715500 0
M  V30 28 N -5.603700 39.255500 81.672500 0
M  V30 29 H -8.772100 39.157900 82.483200 0
M  V30 END ATOM
M  V30 BEGIN BOND
M  V30 1 1 7 8
M  V30 2 2 7 16
M  V30 3 1 8 9
M  V30 4 2 9 10
M  V30 5 1 10 11
M  V30 6 1 11 12
M  V30 7 2 11 15
M  V30 8 1 12 13
M  V30 9 2 13 14
M  V30 10 1 14 18
M  V30 11 1 14 15
M  V30 12 2 18 19
M  V30 13 1 18 22
M  V30 14 1 19 20
M  V30 15 1 20 21
M  V30 16 1 21 23
M  V30 17 2 21 22
M  V30 18 2 23 24
M  V30 19 1 23 28
M  V30 20 1 24 25
M  V30 21 1 25 26
M  V30 22 1 26 27
M  V30 23 2 27 28
M  V30 24 1 15 16
M  V30 25 1 3 4
M  V30 26 2 4 5
M  V30 27 1 4 1
M  V30 28 2 1 2
M  V30 29 1 7 3
M  V30 30 1 12 17
M  V30 31 1 26 29
M  V30 32 1 3 6
M  V30 END BOND
M  V30 END CTAB
M  END
>  <minimizedAffinity>  (3) 
-2.86091

>  <CNNscore>  (3) 
0.5259731412

>  <CNNaffinity>  (3) 
4.5678462982

>  <CNN_VS>  (3) 
2.4025645256

$$$$
_Inhib_32_acrylamide
     RDKit          3D

  0  0  0  0  0  0  0  0  0  0999 V3000
M  V30 BEGIN CTAB
M  V30 COUNTS 29 32 0 0 0
M  V30 BEGIN ATOM
M  V30 1 C -1.255700 45.321200 79.792300 0
M  V30 2 C -1.054400 46.430700 80.511300 0
M  V30 3 N -0.732200 43.695400 81.539900 0
M  V30 4 C -0.912200 43.922400 80.223700 0
M  V30 5 O -0.772000 43.014900 79.414700 0
M  V30 6 H -0.794400 44.541700 82.134100 0
M  V30 7 C -0.422300 42.453200 82.201900 0
M  V30 8 C -0.275000 42.268800 83.723800 0
M  V30 9 N -0.978200 41.150400 84.319200 0
M  V30 10 C -0.854500 39.902200 84.009600 0
M  V30 11 C -0.103700 39.384600 82.845400 0
M  V30 12 N 0.229100 38.085900 82.692600 0
M  V30 13 C 0.769000 37.940800 81.463700 0
M  V30 14 C 0.790500 39.161500 80.817500 0
M  V30 15 C 0.229100 40.074500 81.701900 0
M  V30 16 C -0.124900 41.450300 81.367300 0
M  V30 17 H 0.070400 37.320900 83.385300 0
M  V30 18 C 1.248200 39.434000 79.429900 0
M  V30 19 C 2.417800 40.138100 79.125100 0
M  V30 20 S 2.511000 40.330400 77.467400 0
M  V30 21 C 1.073000 39.509700 77.187000 0
M  V30 22 N 0.516600 39.064700 78.341200 0
M  V30 23 C 0.455200 39.395000 75.852200 0
M  V30 24 C -0.873900 39.241000 75.708900 0
M  V30 25 C -1.474100 39.169700 74.335500 0
M  V30 26 N -0.537700 39.308500 73.243400 0
M  V30 27 C 0.851000 39.464500 73.495900 0
M  V30 28 N 1.299400 39.498600 74.704100 0
M  V30 29 H -0.879500 39.290800 72.272000 0
M  V30 END ATOM
M  V30 BEGIN BOND
M  V30 1 1 7 8
M  V30 2 2 7 16
M  V30 3 1 8 9
M  V30 4 2 9 10
M  V30 5 1 10 11
M  V30 6 1 11 12
M  V30 7 2 11 15
M  V30 8 1 12 13
M  V30 9 2 13 14
M  V30 10 1 14 18
M  V30 11 1 14 15
M  V30 12 2 18 19
M  V30 13 1 18 22
M  V30 14 1 19 20
M  V30 15 1 20 21
M  V30 16 1 21 23
M  V30 17 2 21 22
M  V30 18 2 23 24
M  V30 19 1 23 28
M  V30 20 1 24 25
M  V30 21 1 25 26
M  V30 22 1 26 27
M  V30 23 2 27 28
M  V30 24 1 15 16
M  V30 25 1 3 4
M  V30 26 2 4 5
M  V30 27 1 4 1
M  V30 28 2 1 2
M  V30 29 1 7 3
M  V30 30 1 12 17
M  V30 31 1 26 29
M  V30 32 1 3 6
M  V30 END BOND
M  V30 END CTAB
M  END
>  <minimizedAffinity>  (4) 
-1.09201

>  <CNNscore>  (4) 
0.5105825067

>  <CNNaffinity>  (4) 
4.3797941208

>  <CNN_VS>  (4) 
2.2362463474

$$$$
_Inhib_32_acrylamide
     RDKit          3D

  0  0  0  0  0  0  0  0  0  0999 V3000
M  V30 BEGIN CTAB
M  V30 COUNTS 29 32 0 0 0
M  V30 BEGIN ATOM
M  V30 1 C -0.171100 44.773500 79.962600 0
M  V30 2 C -0.576900 45.956600 80.435900 0
M  V30 3 N 0.839800 42.554700 80.124900 0
M  V30 4 C 0.506200 43.694800 80.761600 0
M  V30 5 O 0.730300 43.823600 81.957700 0
M  V30 6 H 0.537400 42.511400 79.135000 0
M  V30 7 C 1.508700 41.393600 80.655700 0
M  V30 8 C 2.955600 40.975700 80.333500 0
M  V30 9 N 3.802800 40.629000 81.456700 0
M  V30 10 C 3.582000 39.714700 82.342300 0
M  V30 11 C 2.316700 38.964300 82.493400 0
M  V30 12 N 2.199200 37.847100 83.241000 0
M  V30 13 C 0.891700 37.512400 83.279000 0
M  V30 14 C 0.157000 38.421000 82.542200 0
M  V30 15 C 1.070700 39.344500 82.049200 0
M  V30 16 C 0.716800 40.589600 81.374800 0
M  V30 17 H 2.973400 37.345900 83.730600 0
M  V30 18 C -1.319200 38.453200 82.372300 0
M  V30 19 C -2.167800 37.418400 82.779400 0
M  V30 20 S -3.727800 37.786800 82.305800 0
M  V30 21 C -3.281800 39.247600 81.607800 0
M  V30 22 N -1.952500 39.482000 81.742000 0
M  V30 23 C -4.218100 40.101100 80.851900 0
M  V30 24 C -5.417400 39.639000 80.453100 0
M  V30 25 C -6.362500 40.547000 79.722400 0
M  V30 26 N -5.895100 41.901000 79.530100 0
M  V30 27 C -4.609000 42.294300 79.985700 0
M  V30 28 N -3.840800 41.454200 80.590700 0
M  V30 29 H -6.498700 42.587100 79.055200 0
M  V30 END ATOM
M  V30 BEGIN BOND
M  V30 1 1 7 8
M  V30 2 2 7 16
M  V30 3 1 8 9
M  V30 4 2 9 10
M  V30 5 1 10 11
M  V30 6 1 11 12
M  V30 7 2 11 15
M  V30 8 1 12 13
M  V30 9 2 13 14
M  V30 10 1 14 18
M  V30 11 1 14 15
M  V30 12 2 18 19
M  V30 13 1 18 22
M  V30 14 1 19 20
M  V30 15 1 20 21
M  V30 16 1 21 23
M  V30 17 2 21 22
M  V30 18 2 23 24
M  V30 19 1 23 28
M  V30 20 1 24 25
M  V30 21 1 25 26
M  V30 22 1 26 27
M  V30 23 2 27 28
M  V30 24 1 15 16
M  V30 25 1 3 4
M  V30 26 2 4 5
M  V30 27 1 4 1
M  V30 28 2 1 2
M  V30 29 1 7 3
M  V30 30 1 12 17
M  V30 31 1 26 29
M  V30 32 1 3 6
M  V30 END BOND
M  V30 END CTAB
M  END
>  <minimizedAffinity>  (5) 
-1.66745

>  <CNNscore>  (5) 
0.5092707872

>  <CNNaffinity>  (5) 
4.4621858597

>  <CNN_VS>  (5) 
2.2724609375

$$$$
_Inhib_32_acrylamide
     RDKit          3D

  0  0  0  0  0  0  0  0  0  0999 V3000
M  V30 BEGIN CTAB
M  V30 COUNTS 29 32 0 0 0
M  V30 BEGIN ATOM
M  V30 1 C -1.965500 45.894900 79.982200 0
M  V30 2 C -1.445300 46.814200 80.802300 0
M  V30 3 N -0.660400 43.934100 79.331300 0
M  V30 4 C -1.699700 44.416100 80.041300 0
M  V30 5 O -2.411000 43.659100 80.688200 0
M  V30 6 H -0.169200 44.641200 78.755100 0
M  V30 7 C -0.189500 42.575000 79.240500 0
M  V30 8 C -0.436200 41.475900 80.290800 0
M  V30 9 N -0.903900 40.194900 79.801000 0
M  V30 10 C -0.321500 39.436600 78.932200 0
M  V30 11 C 0.852400 39.820300 78.118700 0
M  V30 12 N 1.595100 38.935900 77.421100 0
M  V30 13 C 2.482400 39.635500 76.681900 0
M  V30 14 C 2.314400 40.987600 76.909600 0
M  V30 15 C 1.272000 41.097100 77.821900 0
M  V30 16 C 0.626300 42.349000 78.204100 0
M  V30 17 H 1.486000 37.897400 77.424600 0
M  V30 18 C 3.045000 42.104800 76.256000 0
M  V30 19 C 4.439200 42.216800 76.246100 0
M  V30 20 S 4.855600 43.662900 75.518800 0
M  V30 21 C 3.259200 44.097900 75.232000 0
M  V30 22 N 2.394900 43.146500 75.665200 0
M  V30 23 C 2.865900 45.406600 74.676000 0
M  V30 24 C 3.701300 46.460800 74.713700 0
M  V30 25 C 3.285400 47.766100 74.101500 0
M  V30 26 N 1.983700 47.767700 73.473300 0
M  V30 27 C 1.171600 46.602900 73.487700 0
M  V30 28 N 1.586500 45.519400 74.049700 0
M  V30 29 H 1.639600 48.622500 73.013400 0
M  V30 END ATOM
M  V30 BEGIN BOND
M  V30 1 1 7 8
M  V30 2 2 7 16
M  V30 3 1 8 9
M  V30 4 2 9 10
M  V30 5 1 10 11
M  V30 6 1 11 12
M  V30 7 2 11 15
M  V30 8 1 12 13
M  V30 9 2 13 14
M  V30 10 1 14 18
M  V30 11 1 14 15
M  V30 12 2 18 19
M  V30 13 1 18 22
M  V30 14 1 19 20
M  V30 15 1 20 21
M  V30 16 1 21 23
M  V30 17 2 21 22
M  V30 18 2 23 24
M  V30 19 1 23 28
M  V30 20 1 24 25
M  V30 21 1 25 26
M  V30 22 1 26 27
M  V30 23 2 27 28
M  V30 24 1 15 16
M  V30 25 1 3 4
M  V30 26 2 4 5
M  V30 27 1 4 1
M  V30 28 2 1 2
M  V30 29 1 7 3
M  V30 30 1 12 17
M  V30 31 1 26 29
M  V30 32 1 3 6
M  V30 END BOND
M  V30 END CTAB
M  END
>  <minimizedAffinity>  (6) 
-1.50294

>  <CNNscore>  (6) 
0.5059456825

>  <CNNaffinity>  (6) 
4.2423057556

>  <CNN_VS>  (6) 
2.1463763714

$$$$
_Inhib_32_acrylamide
     RDKit          3D

  0  0  0  0  0  0  0  0  0  0999 V3000
M  V30 BEGIN CTAB
M  V30 COUNTS 29 32 0 0 0
M  V30 BEGIN ATOM
M  V30 1 C -1.085000 44.853000 79.988100 0
M  V30 2 C -0.663200 46.042600 80.429800 0
M  V30 3 N -0.266500 42.802200 81.035100 0
M  V30 4 C -1.309800 43.632000 80.836300 0
M  V30 5 O -2.405700 43.373600 81.315800 0
M  V30 6 H 0.595000 43.065400 80.523500 0
M  V30 7 C -0.218700 41.592600 81.817200 0
M  V30 8 C -1.069800 41.308300 83.069000 0
M  V30 9 N -1.740900 40.025500 83.127300 0
M  V30 10 C -1.191500 38.858300 83.057900 0
M  V30 11 C 0.223200 38.602900 82.710900 0
M  V30 12 N 0.832600 37.414000 82.900000 0
M  V30 13 C 2.059600 37.486400 82.341500 0
M  V30 14 C 2.247000 38.739200 81.790300 0
M  V30 15 C 1.071900 39.442400 82.025700 0
M  V30 16 C 0.750300 40.745200 81.451700 0
M  V30 17 H 0.421200 36.575000 83.366100 0
M  V30 18 C 3.432200 39.217000 81.031300 0
M  V30 19 C 3.850000 38.660400 79.818000 0
M  V30 20 S 5.277600 39.395900 79.354300 0
M  V30 21 C 5.317700 40.401000 80.698900 0
M  V30 22 N 4.242900 40.205400 81.503000 0
M  V30 23 C 6.447800 41.299200 81.002700 0
M  V30 24 C 6.820400 42.267200 80.145300 0
M  V30 25 C 7.947500 43.190200 80.504400 0
M  V30 26 N 8.537900 42.968800 81.805000 0
M  V30 27 C 8.076600 41.916700 82.639600 0
M  V30 28 N 7.114100 41.148700 82.257700 0
M  V30 29 H 9.302900 43.577400 82.129000 0
M  V30 END ATOM
M  V30 BEGIN BOND
M  V30 1 1 7 8
M  V30 2 2 7 16
M  V30 3 1 8 9
M  V30 4 2 9 10
M  V30 5 1 10 11
M  V30 6 1 11 12
M  V30 7 2 11 15
M  V30 8 1 12 13
M  V30 9 2 13 14
M  V30 10 1 14 18
M  V30 11 1 14 15
M  V30 12 2 18 19
M  V30 13 1 18 22
M  V30 14 1 19 20
M  V30 15 1 20 21
M  V30 16 1 21 23
M  V30 17 2 21 22
M  V30 18 2 23 24
M  V30 19 1 23 28
M  V30 20 1 24 25
M  V30 21 1 25 26
M  V30 22 1 26 27
M  V30 23 2 27 28
M  V30 24 1 15 16
M  V30 25 1 3 4
M  V30 26 2 4 5
M  V30 27 1 4 1
M  V30 28 2 1 2
M  V30 29 1 7 3
M  V30 30 1 12 17
M  V30 31 1 26 29
M  V30 32 1 3 6
M  V30 END BOND
M  V30 END CTAB
M  END
>  <minimizedAffinity>  (7) 
-2.84304

>  <CNNscore>  (7) 
0.5044545531

>  <CNNaffinity>  (7) 
4.3505153656

>  <CNN_VS>  (7) 
2.1946372986

$$$$
_Inhib_32_acrylamide
     RDKit          3D

  0  0  0  0  0  0  0  0  0  0999 V3000
M  V30 BEGIN CTAB
M  V30 COUNTS 29 32 0 0 0
M  V30 BEGIN ATOM
M  V30 1 C 0.748700 44.027300 81.343900 0
M  V30 2 C 0.514900 44.829600 82.387900 0
M  V30 3 N 0.295100 43.170000 79.101000 0
M  V30 4 C 0.188500 44.203300 79.959700 0
M  V30 5 O -0.327200 45.253900 79.602300 0
M  V30 6 H 0.816800 42.355400 79.471900 0
M  V30 7 C -0.176100 43.080900 77.741800 0
M  V30 8 C -1.601100 43.425200 77.269900 0
M  V30 9 N -1.716900 44.275800 76.102600 0
M  V30 10 C -1.225500 44.053700 74.928600 0
M  V30 11 C -0.278100 42.968600 74.594000 0
M  V30 12 N 0.011900 42.598000 73.329400 0
M  V30 13 C 1.013200 41.694000 73.384200 0
M  V30 14 C 1.370100 41.474000 74.700500 0
M  V30 15 C 0.546600 42.292300 75.464000 0
M  V30 16 C 0.701300 42.528100 76.896000 0
M  V30 17 H -0.433700 42.965300 72.459400 0
M  V30 18 C 2.463500 40.599400 75.199200 0
M  V30 19 C 2.600100 39.253100 74.845100 0
M  V30 20 S 3.876200 38.599700 75.704400 0
M  V30 21 C 4.220700 40.042700 76.491200 0
M  V30 22 N 3.387800 41.038800 76.098900 0
M  V30 23 C 5.237000 40.160700 77.554100 0
M  V30 24 C 6.512300 39.785500 77.345500 0
M  V30 25 C 7.529700 39.958100 78.434800 0
M  V30 26 N 7.037100 40.564300 79.650800 0
M  V30 27 C 5.669400 40.924800 79.777300 0
M  V30 28 N 4.845800 40.729900 78.805000 0
M  V30 29 H 7.682800 40.734000 80.434900 0
M  V30 END ATOM
M  V30 BEGIN BOND
M  V30 1 1 7 8
M  V30 2 2 7 16
M  V30 3 1 8 9
M  V30 4 2 9 10
M  V30 5 1 10 11
M  V30 6 1 11 12
M  V30 7 2 11 15
M  V30 8 1 12 13
M  V30 9 2 13 14
M  V30 10 1 14 18
M  V30 11 1 14 15
M  V30 12 2 18 19
M  V30 13 1 18 22
M  V30 14 1 19 20
M  V30 15 1 20 21
M  V30 16 1 21 23
M  V30 17 2 21 22
M  V30 18 2 23 24
M  V30 19 1 23 28
M  V30 20 1 24 25
M  V30 21 1 25 26
M  V30 22 1 26 27
M  V30 23 2 27 28
M  V30 24 1 15 16
M  V30 25 1 3 4
M  V30 26 2 4 5
M  V30 27 1 4 1
M  V30 28 2 1 2
M  V30 29 1 7 3
M  V30 30 1 12 17
M  V30 31 1 26 29
M  V30 32 1 3 6
M  V30 END BOND
M  V30 END CTAB
M  END
>  <minimizedAffinity>  (8) 
-1.31298

>  <CNNscore>  (8) 
0.5043541789

>  <CNNaffinity>  (8) 
4.1530485153

>  <CNN_VS>  (8) 
2.0946073532

$$$$
_Inhib_32_acrylamide
     RDKit          3D

  0  0  0  0  0  0  0  0  0  0999 V3000
M  V30 BEGIN CTAB
M  V30 COUNTS 29 32 0 0 0
M  V30 BEGIN ATOM
M  V30 1 C -1.250500 45.485400 79.729000 0
M  V30 2 C -1.152300 46.527200 80.561600 0
M  V30 3 N -0.699400 43.658700 81.255700 0
M  V30 4 C -0.711600 44.105100 79.984100 0
M  V30 5 O -0.271000 43.408300 79.079700 0
M  V30 6 H -1.018800 44.351100 81.957000 0
M  V30 7 C -0.259700 42.379500 81.753200 0
M  V30 8 C -0.520800 41.839100 83.171600 0
M  V30 9 N -1.021500 40.483200 83.274100 0
M  V30 10 C -0.464400 39.413100 82.811900 0
M  V30 11 C 0.709900 39.385100 81.913500 0
M  V30 12 N 1.426100 38.270000 81.660000 0
M  V30 13 C 2.321600 38.566200 80.693900 0
M  V30 14 C 2.185900 39.890100 80.323400 0
M  V30 15 C 1.155000 40.403100 81.101100 0
M  V30 16 C 0.541000 41.713800 80.912700 0
M  V30 17 H 1.293900 37.335000 82.105700 0
M  V30 18 C 2.934900 40.604300 79.256600 0
M  V30 19 C 4.258300 41.035100 79.396100 0
M  V30 20 S 4.689700 41.893000 78.028000 0
M  V30 21 C 3.191300 41.685300 77.298900 0
M  V30 22 N 2.355100 40.949100 78.072600 0
M  V30 23 C 2.817500 42.326100 76.023700 0
M  V30 24 C 3.739300 42.595100 75.080900 0
M  V30 25 C 3.318400 43.209300 73.778200 0
M  V30 26 N 1.899000 43.439400 73.632800 0
M  V30 27 C 1.002800 43.124200 74.688200 0
M  V30 28 N 1.437800 42.614800 75.789700 0
M  V30 29 H 1.533400 43.839000 72.756800 0
M  V30 END ATOM
M  V30 BEGIN BOND
M  V30 1 1 7 8
M  V30 2 2 7 16
M  V30 3 1 8 9
M  V30 4 2 9 10
M  V30 5 1 10 11
M  V30 6 1 11 12
M  V30 7 2 11 15
M  V30 8 1 12 13
M  V30 9 2 13 14
M  V30 10 1 14 18
M  V30 11 1 14 15
M  V30 12 2 18 19
M  V30 13 1 18 22
M  V30 14 1 19 20
M  V30 15 1 20 21
M  V30 16 1 21 23
M  V30 17 2 21 22
M  V30 18 2 23 24
M  V30 19 1 23 28
M  V30 20 1 24 25
M  V30 21 1 25 26
M  V30 22 1 26 27
M  V30 23 2 27 28
M  V30 24 1 15 16
M  V30 25 1 3 4
M  V30 26 2 4 5
M  V30 27 1 4 1
M  V30 28 2 1 2
M  V30 29 1 7 3
M  V30 30 1 12 17
M  V30 31 1 26 29
M  V30 32 1 3 6
M  V30 END BOND
M  V30 END CTAB
M  END
>  <minimizedAffinity>  (9) 
-0.73199

>  <CNNscore>  (9) 
0.4880783558

>  <CNNaffinity>  (9) 
4.3367805481

>  <CNN_VS>  (9) 
2.1166887283

$$$$
_Inhib_32_acrylamide
     RDKit          3D

  0  0  0  0  0  0  0  0  0  0999 V3000
M  V30 BEGIN CTAB
M  V30 COUNTS 29 32 0 0 0
M  V30 BEGIN ATOM
M  V30 1 C -2.698800 47.585600 81.444100 0
M  V30 2 C -1.909100 47.242500 82.467300 0
M  V30 3 N -2.898300 46.199300 79.441700 0
M  V30 4 C -2.411600 47.330000 79.990500 0
M  V30 5 O -1.737500 48.101800 79.321700 0
M  V30 6 H -3.387000 45.574400 80.107900 0
M  V30 7 C -2.781900 45.740700 78.080300 0
M  V30 8 C -3.427900 46.415600 76.855900 0
M  V30 9 N -2.576500 46.636600 75.704500 0
M  V30 10 C -1.915400 45.743600 75.045300 0
M  V30 11 C -1.746100 44.333500 75.457500 0
M  V30 12 N -1.283100 43.368700 74.635700 0
M  V30 13 C -1.114200 42.248200 75.369700 0
M  V30 14 C -1.478200 42.490800 76.680000 0
M  V30 15 C -1.874900 43.821600 76.728600 0
M  V30 16 C -2.159800 44.562700 77.953300 0
M  V30 17 H -1.063200 43.473800 73.620300 0
M  V30 18 C -1.391500 41.546500 77.824500 0
M  V30 19 C -2.425200 41.350800 78.746300 0
M  V30 20 S -1.891200 40.306100 79.936800 0
M  V30 21 C -0.371800 40.127900 79.244000 0
M  V30 22 N -0.257900 40.840500 78.095500 0
M  V30 23 C 0.723200 39.372400 79.881600 0
M  V30 24 C 1.948100 39.316500 79.327200 0
M  V30 25 C 3.050300 38.573900 80.023700 0
M  V30 26 N 2.693000 37.985700 81.294600 0
M  V30 27 C 1.369300 38.096400 81.796800 0
M  V30 28 N 0.466400 38.734900 81.134300 0
M  V30 29 H 3.403700 37.478300 81.840600 0
M  V30 END ATOM
M  V30 BEGIN BOND
M  V30 1 1 7 8
M  V30 2 2 7 16
M  V30 3 1 8 9
M  V30 4 2 9 10
M  V30 5 1 10 11
M  V30 6 1 11 12
M  V30 7 2 11 15
M  V30 8 1 12 13
M  V30 9 2 13 14
M  V30 10 1 14 18
M  V30 11 1 14 15
M  V30 12 2 18 19
M  V30 13 1 18 22
M  V30 14 1 19 20
M  V30 15 1 20 21
M  V30 16 1 21 23
M  V30 17 2 21 22
M  V30 18 2 23 24
M  V30 19 1 23 28
M  V30 20 1 24 25
M  V30 21 1 25 26
M  V30 22 1 26 27
M  V30 23 2 27 28
M  V30 24 1 15 16
M  V30 25 1 3 4
M  V30 26 2 4 5
M  V30 27 1 4 1
M  V30 28 2 1 2
M  V30 29 1 7 3
M  V30 30 1 12 17
M  V30 31 1 26 29
M  V30 32 1 3 6
M  V30 END BOND
M  V30 END CTAB
M  END
>  <minimizedAffinity>  (10) 
1.21567

>  <CNNscore>  (10) 
0.4737298191

>  <CNNaffinity>  (10) 
4.3640146255

>  <CNN_VS>  (10) 
2.0673639774

$$$$
_Inhib_32_acrylamide
     RDKit          3D

  0  0  0  0  0  0  0  0  0  0999 V3000
M  V30 BEGIN CTAB
M  V30 COUNTS 29 32 0 0 0
M  V30 BEGIN ATOM
M  V30 1 C 0.376300 43.982100 81.064900 0
M  V30 2 C 0.103300 45.270900 80.835000 0
M  V30 3 N 0.725800 42.012500 82.468400 0
M  V30 4 C 0.361900 43.308900 82.409200 0
M  V30 5 O 0.008800 43.899000 83.421500 0
M  V30 6 H 0.930500 41.581500 81.548800 0
M  V30 7 C 0.815900 41.158000 83.625500 0
M  V30 8 C -0.349200 40.818900 84.574000 0
M  V30 9 N -0.535400 39.421600 84.909300 0
M  V30 10 C 0.329800 38.632500 85.455200 0
M  V30 11 C 1.756800 38.954000 85.672300 0
M  V30 12 N 2.569100 38.230600 86.470600 0
M  V30 13 C 3.823700 38.706900 86.322100 0
M  V30 14 C 3.820400 39.754300 85.421500 0
M  V30 15 C 2.501700 39.902400 85.009000 0
M  V30 16 C 2.061400 40.764500 83.916800 0
M  V30 17 H 2.287900 37.425300 87.072900 0
M  V30 18 C 4.996500 40.519600 84.931400 0
M  V30 19 C 5.962400 39.987200 84.071100 0
M  V30 20 S 7.171900 41.120600 83.856100 0
M  V30 21 C 6.431400 42.252300 84.851500 0
M  V30 22 N 5.252800 41.793500 85.341800 0
M  V30 23 C 7.057000 43.536400 85.220000 0
M  V30 24 C 7.976900 44.117600 84.428200 0
M  V30 25 C 8.562600 45.444500 84.812600 0
M  V30 26 N 8.044200 46.019100 86.033200 0
M  V30 27 C 7.073700 45.326200 86.804300 0
M  V30 28 N 6.628000 44.178500 86.422300 0
M  V30 29 H 8.383800 46.938500 86.349500 0
M  V30 END ATOM
M  V30 BEGIN BOND
M  V30 1 1 7 8
M  V30 2 2 7 16
M  V30 3 1 8 9
M  V30 4 2 9 10
M  V30 5 1 10 11
M  V30 6 1 11 12
M  V30 7 2 11 15
M  V30 8 1 12 13
M  V30 9 2 13 14
M  V30 10 1 14 18
M  V30 11 1 14 15
M  V30 12 2 18 19
M  V30 13 1 18 22
M  V30 14 1 19 20
M  V30 15 1 20 21
M  V30 16 1 21 23
M  V30 17 2 21 22
M  V30 18 2 23 24
M  V30 19 1 23 28
M  V30 20 1 24 25
M  V30 21 1 25 26
M  V30 22 1 26 27
M  V30 23 2 27 28
M  V30 24 1 15 16
M  V30 25 1 3 4
M  V30 26 2 4 5
M  V30 27 1 4 1
M  V30 28 2 1 2
M  V30 29 1 7 3
M  V30 30 1 12 17
M  V30 31 1 26 29
M  V30 32 1 3 6
M  V30 END BOND
M  V30 END CTAB
M  END
>  <minimizedAffinity>  (11) 
-2.64999

>  <CNNscore>  (11) 
0.4736365378

>  <CNNaffinity>  (11) 
4.3307609558

>  <CNN_VS>  (11) 
2.0512065887

$$$$
_Inhib_32_acrylamide
     RDKit          3D

  0  0  0  0  0  0  0  0  0  0999 V3000
M  V30 BEGIN CTAB
M  V30 COUNTS 29 32 0 0 0
M  V30 BEGIN ATOM
M  V30 1 C -2.744600 46.985200 80.946100 0
M  V30 2 C -1.914900 47.258700 81.958600 0
M  V30 3 N -1.611000 44.989700 80.106700 0
M  V30 4 C -2.501500 45.971400 79.862500 0
M  V30 5 O -3.067400 46.037900 78.779600 0
M  V30 6 H -1.127700 45.065600 81.019900 0
M  V30 7 C -1.222300 43.897700 79.250100 0
M  V30 8 C -0.958100 42.453200 79.714600 0
M  V30 9 N -1.587400 41.394300 78.951500 0
M  V30 10 C -1.456300 41.165800 77.686700 0
M  V30 11 C -0.781500 42.064100 76.725200 0
M  V30 12 N -0.429000 41.688700 75.478000 0
M  V30 13 C 0.021700 42.784100 74.829900 0
M  V30 14 C -0.035000 43.878600 75.670700 0
M  V30 15 C -0.551400 43.412900 76.873700 0
M  V30 16 C -0.963100 44.260400 77.988400 0
M  V30 17 H -0.517000 40.730700 75.072000 0
M  V30 18 C 0.311800 45.284900 75.337100 0
M  V30 19 C -0.552400 46.156800 74.666500 0
M  V30 20 S 0.251400 47.594200 74.381500 0
M  V30 21 C 1.664600 47.071200 75.122600 0
M  V30 22 N 1.538200 45.811900 75.610600 0
M  V30 23 C 2.911300 47.859900 75.132600 0
M  V30 24 C 3.755600 47.818200 76.179600 0
M  V30 25 C 5.035400 48.600400 76.139200 0
M  V30 26 N 5.272600 49.335600 74.917600 0
M  V30 27 C 4.317900 49.320100 73.866500 0
M  V30 28 N 3.228900 48.639300 73.977800 0
M  V30 29 H 6.140600 49.879100 74.808900 0
M  V30 END ATOM
M  V30 BEGIN BOND
M  V30 1 1 7 8
M  V30 2 2 7 16
M  V30 3 1 8 9
M  V30 4 2 9 10
M  V30 5 1 10 11
M  V30 6 1 11 12
M  V30 7 2 11 15
M  V30 8 1 12 13
M  V30 9 2 13 14
M  V30 10 1 14 18
M  V30 11 1 14 15
M  V30 12 2 18 19
M  V30 13 1 18 22
M  V30 14 1 19 20
M  V30 15 1 20 21
M  V30 16 1 21 23
M  V30 17 2 21 22
M  V30 18 2 23 24
M  V30 19 1 23 28
M  V30 20 1 24 25
M  V30 21 1 25 26
M  V30 22 1 26 27
M  V30 23 2 27 28
M  V30 24 1 15 16
M  V30 25 1 3 4
M  V30 26 2 4 5
M  V30 27 1 4 1
M  V30 28 2 1 2
M  V30 29 1 7 3
M  V30 30 1 12 17
M  V30 31 1 26 29
M  V30 32 1 3 6
M  V30 END BOND
M  V30 END CTAB
M  END
>  <minimizedAffinity>  (12) 
-0.39487

>  <CNNscore>  (12) 
0.4597004056

>  <CNNaffinity>  (12) 
4.3065013885

>  <CNN_VS>  (12) 
1.9797004461

$$$$
_Inhib_32_acrylamide
     RDKit          3D

  0  0  0  0  0  0  0  0  0  0999 V3000
M  V30 BEGIN CTAB
M  V30 COUNTS 29 32 0 0 0
M  V30 BEGIN ATOM
M  V30 1 C -1.003700 46.670700 79.554500 0
M  V30 2 C -1.449300 46.818100 80.806600 0
M  V30 3 N 0.446500 44.999300 78.517700 0
M  V30 4 C 0.362300 46.180200 79.161800 0
M  V30 5 O 1.375700 46.809700 79.434300 0
M  V30 6 H -0.457700 44.506600 78.404200 0
M  V30 7 C 1.622500 44.330100 78.021200 0
M  V30 8 C 2.380900 44.702200 76.733400 0
M  V30 9 N 3.821600 44.821100 76.832800 0
M  V30 10 C 4.649600 43.912800 77.231000 0
M  V30 11 C 4.267500 42.625200 77.849800 0
M  V30 12 N 5.123700 41.595200 78.012900 0
M  V30 13 C 4.493300 40.646100 78.737300 0
M  V30 14 C 3.212600 41.065900 79.040400 0
M  V30 15 C 3.078200 42.328400 78.475800 0
M  V30 16 C 1.954300 43.230300 78.707600 0
M  V30 17 H 6.108800 41.549100 77.669600 0
M  V30 18 C 2.206300 40.350100 79.867500 0
M  V30 19 C 2.529000 39.607000 81.007800 0
M  V30 20 S 1.141700 38.868500 81.576700 0
M  V30 21 C 0.175000 39.518700 80.367300 0
M  V30 22 N 0.886100 40.316300 79.531800 0
M  V30 23 C -1.246200 39.164400 80.191000 0
M  V30 24 C -1.627000 38.224300 79.306800 0
M  V30 25 C -3.077000 37.858700 79.182700 0
M  V30 26 N -3.969500 38.555000 80.081400 0
M  V30 27 C -3.471900 39.535700 80.979800 0
M  V30 28 N -2.213500 39.812700 81.019100 0
M  V30 29 H -4.976700 38.340900 80.068400 0
M  V30 END ATOM
M  V30 BEGIN BOND
M  V30 1 1 7 8
M  V30 2 2 7 16
M  V30 3 1 8 9
M  V30 4 2 9 10
M  V30 5 1 10 11
M  V30 6 1 11 12
M  V30 7 2 11 15
M  V30 8 1 12 13
M  V30 9 2 13 14
M  V30 10 1 14 18
M  V30 11 1 14 15
M  V30 12 2 18 19
M  V30 13 1 18 22
M  V30 14 1 19 20
M  V30 15 1 20 21
M  V30 16 1 21 23
M  V30 17 2 21 22
M  V30 18 2 23 24
M  V30 19 1 23 28
M  V30 20 1 24 25
M  V30 21 1 25 26
M  V30 22 1 26 27
M  V30 23 2 27 28
M  V30 24 1 15 16
M  V30 25 1 3 4
M  V30 26 2 4 5
M  V30 27 1 4 1
M  V30 28 2 1 2
M  V30 29 1 7 3
M  V30 30 1 12 17
M  V30 31 1 26 29
M  V30 32 1 3 6
M  V30 END BOND
M  V30 END CTAB
M  END
>  <minimizedAffinity>  (13) 
-1.85325

>  <CNNscore>  (13) 
0.4529953301

>  <CNNaffinity>  (13) 
4.1939411163

>  <CNN_VS>  (13) 
1.8998357058

$$$$
_Inhib_32_acrylamide
     RDKit          3D

  0  0  0  0  0  0  0  0  0  0999 V3000
M  V30 BEGIN CTAB
M  V30 COUNTS 29 32 0 0 0
M  V30 BEGIN ATOM
M  V30 1 C 0.788100 43.907000 82.300900 0
M  V30 2 C 0.365600 44.966000 82.999700 0
M  V30 3 N 0.950100 42.497900 80.311000 0
M  V30 4 C 0.563200 43.679300 80.831800 0
M  V30 5 O 0.069800 44.539400 80.114700 0
M  V30 6 H 1.428200 41.869100 80.981200 0
M  V30 7 C 0.825600 42.032500 78.952600 0
M  V30 8 C -0.440900 42.150800 78.084300 0
M  V30 9 N -0.268100 42.663900 76.740300 0
M  V30 10 C 0.495600 42.180400 75.817200 0
M  V30 11 C 1.496400 41.109800 76.014900 0
M  V30 12 N 2.086800 40.446700 74.998900 0
M  V30 13 C 3.044700 39.654100 75.525500 0
M  V30 14 C 3.068900 39.802900 76.898700 0
M  V30 15 C 2.083400 40.734500 77.201800 0
M  V30 16 C 1.883300 41.339500 78.514900 0
M  V30 17 H 1.867500 40.548600 73.983100 0
M  V30 18 C 4.007500 39.158600 77.854300 0
M  V30 19 C 5.123300 38.413300 77.459400 0
M  V30 20 S 5.844100 37.765200 78.821100 0
M  V30 21 C 4.726600 38.454700 79.867800 0
M  V30 22 N 3.808000 39.197900 79.201700 0
M  V30 23 C 4.702300 38.182200 81.317500 0
M  V30 24 C 5.715100 38.564400 82.116900 0
M  V30 25 C 5.639000 38.308600 83.593500 0
M  V30 26 N 4.422300 37.675700 84.049600 0
M  V30 27 C 3.408700 37.305900 83.126400 0
M  V30 28 N 3.550000 37.540100 81.866700 0
M  V30 29 H 4.289700 37.487800 85.053500 0
M  V30 END ATOM
M  V30 BEGIN BOND
M  V30 1 1 7 8
M  V30 2 2 7 16
M  V30 3 1 8 9
M  V30 4 2 9 10
M  V30 5 1 10 11
M  V30 6 1 11 12
M  V30 7 2 11 15
M  V30 8 1 12 13
M  V30 9 2 13 14
M  V30 10 1 14 18
M  V30 11 1 14 15
M  V30 12 2 18 19
M  V30 13 1 18 22
M  V30 14 1 19 20
M  V30 15 1 20 21
M  V30 16 1 21 23
M  V30 17 2 21 22
M  V30 18 2 23 24
M  V30 19 1 23 28
M  V30 20 1 24 25
M  V30 21 1 25 26
M  V30 22 1 26 27
M  V30 23 2 27 28
M  V30 24 1 15 16
M  V30 25 1 3 4
M  V30 26 2 4 5
M  V30 27 1 4 1
M  V30 28 2 1 2
M  V30 29 1 7 3
M  V30 30 1 12 17
M  V30 31 1 26 29
M  V30 32 1 3 6
M  V30 END BOND
M  V30 END CTAB
M  END
>  <minimizedAffinity>  (14) 
0.18981

>  <CNNscore>  (14) 
0.4514275789

>  <CNNaffinity>  (14) 
4.0784645081

>  <CNN_VS>  (14) 
1.8411313295

$$$$
_Inhib_32_acrylamide
     RDKit          3D

  0  0  0  0  0  0  0  0  0  0999 V3000
M  V30 BEGIN CTAB
M  V30 COUNTS 29 32 0 0 0
M  V30 BEGIN ATOM
M  V30 1 C 1.003800 44.026100 82.148400 0
M  V30 2 C 0.396800 44.936500 82.917100 0
M  V30 3 N -0.227100 44.022700 80.037400 0
M  V30 4 C 0.975100 43.987700 80.645600 0
M  V30 5 O 2.000800 43.901400 79.983800 0
M  V30 6 H -1.036100 44.015400 80.684500 0
M  V30 7 C -0.518800 44.020200 78.625900 0
M  V30 8 C -1.627500 44.844500 77.945200 0
M  V30 9 N -1.256000 45.587700 76.758100 0
M  V30 10 C -0.743300 45.110500 75.672500 0
M  V30 11 C -0.254300 43.725600 75.499400 0
M  V30 12 N 0.028500 43.181400 74.297600 0
M  V30 13 C 0.587100 41.971400 74.514300 0
M  V30 14 C 0.660300 41.729100 75.872300 0
M  V30 15 C 0.126900 42.852300 76.492600 0
M  V30 16 C 0.177000 43.115500 77.927300 0
M  V30 17 H -0.125800 43.625700 73.365300 0
M  V30 18 C 1.257900 40.543700 76.540900 0
M  V30 19 C 0.516500 39.618100 77.282700 0
M  V30 20 S 1.568000 38.511000 77.962700 0
M  V30 21 C 2.927200 39.232800 77.290600 0
M  V30 22 N 2.599700 40.306600 76.529400 0
M  V30 23 C 4.304700 38.800700 77.593800 0
M  V30 24 C 4.627300 38.288200 78.795600 0
M  V30 25 C 6.028700 37.819700 79.056400 0
M  V30 26 N 6.938000 37.936900 77.939100 0
M  V30 27 C 6.503700 38.495300 76.707800 0
M  V30 28 N 5.287100 38.895200 76.560400 0
M  V30 29 H 7.911600 37.615800 78.037100 0
M  V30 END ATOM
M  V30 BEGIN BOND
M  V30 1 1 7 8
M  V30 2 2 7 16
M  V30 3 1 8 9
M  V30 4 2 9 10
M  V30 5 1 10 11
M  V30 6 1 11 12
M  V30 7 2 11 15
M  V30 8 1 12 13
M  V30 9 2 13 14
M  V30 10 1 14 18
M  V30 11 1 14 15
M  V30 12 2 18 19
M  V30 13 1 18 22
M  V30 14 1 19 20
M  V30 15 1 20 21
M  V30 16 1 21 23
M  V30 17 2 21 22
M  V30 18 2 23 24
M  V30 19 1 23 28
M  V30 20 1 24 25
M  V30 21 1 25 26
M  V30 22 1 26 27
M  V30 23 2 27 28
M  V30 24 1 15 16
M  V30 25 1 3 4
M  V30 26 2 4 5
M  V30 27 1 4 1
M  V30 28 2 1 2
M  V30 29 1 7 3
M  V30 30 1 12 17
M  V30 31 1 26 29
M  V30 32 1 3 6
M  V30 END BOND
M  V30 END CTAB
M  END
>  <minimizedAffinity>  (15) 
-1.08565

>  <CNNscore>  (15) 
0.4319286346

>  <CNNaffinity>  (15) 
4.1133785248

>  <CNN_VS>  (15) 
1.7766859531

$$$$
_Inhib_32_acrylamide
     RDKit          3D

  0  0  0  0  0  0  0  0  0  0999 V3000
M  V30 BEGIN CTAB
M  V30 COUNTS 29 32 0 0 0
M  V30 BEGIN ATOM
M  V30 1 C -0.960600 45.597900 79.616800 0
M  V30 2 C -1.150900 46.525800 80.560700 0
M  V30 3 N -0.623400 43.186100 79.414500 0
M  V30 4 C -0.091000 44.378400 79.748400 0
M  V30 5 O 1.056400 44.447600 80.168300 0
M  V30 6 H -1.623500 43.222100 79.146900 0
M  V30 7 C 0.002700 41.887900 79.430800 0
M  V30 8 C 1.433100 41.584000 78.947500 0
M  V30 9 N 2.267400 40.791500 79.828200 0
M  V30 10 C 2.013500 39.608700 80.281400 0
M  V30 11 C 0.721500 38.902900 80.141100 0
M  V30 12 N 0.563300 37.585400 80.385600 0
M  V30 13 C -0.755500 37.307200 80.307200 0
M  V30 14 C -1.456700 38.457800 80.002600 0
M  V30 15 C -0.509800 39.469900 79.903000 0
M  V30 16 C -0.818000 40.891500 79.783500 0
M  V30 17 H 1.318800 36.905200 80.624400 0
M  V30 18 C -2.930800 38.604400 79.881500 0
M  V30 19 C -3.574300 39.009700 78.707600 0
M  V30 20 S -5.209500 39.162700 79.018100 0
M  V30 21 C -5.052900 38.703400 80.625700 0
M  V30 22 N -3.766300 38.410800 80.940400 0
M  V30 23 C -6.172700 38.728500 81.585900 0
M  V30 24 C -7.266100 39.480900 81.363800 0
M  V30 25 C -8.404700 39.450700 82.340600 0
M  V30 26 N -8.232800 38.557400 83.463700 0
M  V30 27 C -7.038200 37.804500 83.613400 0
M  V30 28 N -6.091300 37.894400 82.743200 0
M  V30 29 H -8.982100 38.467900 84.164500 0
M  V30 END ATOM
M  V30 BEGIN BOND
M  V30 1 1 7 8
M  V30 2 2 7 16
M  V30 3 1 8 9
M  V30 4 2 9 10
M  V30 5 1 10 11
M  V30 6 1 11 12
M  V30 7 2 11 15
M  V30 8 1 12 13
M  V30 9 2 13 14
M  V30 10 1 14 18
M  V30 11 1 14 15
M  V30 12 2 18 19
M  V30 13 1 18 22
M  V30 14 1 19 20
M  V30 15 1 20 21
M  V30 16 1 21 23
M  V30 17 2 21 22
M  V30 18 2 23 24
M  V30 19 1 23 28
M  V30 20 1 24 25
M  V30 21 1 25 26
M  V30 22 1 26 27
M  V30 23 2 27 28
M  V30 24 1 15 16
M  V30 25 1 3 4
M  V30 26 2 4 5
M  V30 27 1 4 1
M  V30 28 2 1 2
M  V30 29 1 7 3
M  V30 30 1 12 17
M  V30 31 1 26 29
M  V30 32 1 3 6
M  V30 END BOND
M  V30 END CTAB
M  END
>  <minimizedAffinity>  (16) 
-3.53351

>  <CNNscore>  (16) 
0.4146321714

>  <CNNaffinity>  (16) 
4.6669759750

>  <CNN_VS>  (16) 
1.9350783825

$$$$
_Inhib_32_acrylamide
     RDKit          3D

  0  0  0  0  0  0  0  0  0  0999 V3000
M  V30 BEGIN CTAB
M  V30 COUNTS 29 32 0 0 0
M  V30 BEGIN ATOM
M  V30 1 C -1.674000 46.428200 79.772500 0
M  V30 2 C -1.595200 46.959600 80.997100 0
M  V30 3 N -1.317000 44.125700 79.036100 0
M  V30 4 C -0.782100 45.348100 79.226000 0
M  V30 5 O 0.399600 45.551000 78.981400 0
M  V30 6 H -2.301000 44.034400 79.346900 0
M  V30 7 C -0.685300 42.942100 78.509400 0
M  V30 8 C -0.320500 42.711400 77.030900 0
M  V30 9 N 1.016200 42.225300 76.754200 0
M  V30 10 C 1.557900 41.143600 77.207400 0
M  V30 11 C 0.980800 40.278700 78.259000 0
M  V30 12 N 1.426500 39.033300 78.525400 0
M  V30 13 C 0.785000 38.593400 79.629100 0
M  V30 14 C -0.089600 39.564200 80.077100 0
M  V30 15 C 0.044200 40.635500 79.202300 0
M  V30 16 C -0.549000 41.954100 79.401600 0
M  V30 17 H 2.159000 38.511600 77.994900 0
M  V30 18 C -0.945000 39.509500 81.291500 0
M  V30 19 C -0.444500 39.594000 82.594900 0
M  V30 20 S -1.706300 39.373800 83.668800 0
M  V30 21 C -2.847200 39.186600 82.450900 0
M  V30 22 N -2.290700 39.307700 81.219800 0
M  V30 23 C -4.254100 38.826500 82.710200 0
M  V30 24 C -4.584500 37.629000 83.227600 0
M  V30 25 C -6.021900 37.311300 83.517900 0
M  V30 26 N -6.959800 38.373400 83.233200 0
M  V30 27 C -6.514100 39.604700 82.683900 0
M  V30 28 N -5.263300 39.801900 82.442000 0
M  V30 29 H -7.961900 38.235600 83.427000 0
M  V30 END ATOM
M  V30 BEGIN BOND
M  V30 1 1 7 8
M  V30 2 2 7 16
M  V30 3 1 8 9
M  V30 4 2 9 10
M  V30 5 1 10 11
M  V30 6 1 11 12
M  V30 7 2 11 15
M  V30 8 1 12 13
M  V30 9 2 13 14
M  V30 10 1 14 18
M  V30 11 1 14 15
M  V30 12 2 18 19
M  V30 13 1 18 22
M  V30 14 1 19 20
M  V30 15 1 20 21
M  V30 16 1 21 23
M  V30 17 2 21 22
M  V30 18 2 23 24
M  V30 19 1 23 28
M  V30 20 1 24 25
M  V30 21 1 25 26
M  V30 22 1 26 27
M  V30 23 2 27 28
M  V30 24 1 15 16
M  V30 25 1 3 4
M  V30 26 2 4 5
M  V30 27 1 4 1
M  V30 28 2 1 2
M  V30 29 1 7 3
M  V30 30 1 12 17
M  V30 31 1 26 29
M  V30 32 1 3 6
M  V30 END BOND
M  V30 END CTAB
M  END
>  <minimizedAffinity>  (17) 
-3.08718

>  <CNNscore>  (17) 
0.4107932150

>  <CNNaffinity>  (17) 
4.4808893204

>  <CNN_VS>  (17) 
1.8407189846

$$$$
_Inhib_32_acrylamide
     RDKit          3D

  0  0  0  0  0  0  0  0  0  0999 V3000
M  V30 BEGIN CTAB
M  V30 COUNTS 29 32 0 0 0
M  V30 BEGIN ATOM
M  V30 1 C -2.976000 46.517500 83.050900 0
M  V30 2 C -1.767900 47.090500 83.031000 0
M  V30 3 N -2.555700 44.844800 81.319800 0
M  V30 4 C -3.367400 45.270200 82.308100 0
M  V30 5 O -4.399600 44.664900 82.564400 0
M  V30 6 H -1.750600 45.467600 81.127300 0
M  V30 7 C -2.695300 43.679100 80.483600 0
M  V30 8 C -3.480400 43.622800 79.159800 0
M  V30 9 N -2.813000 43.011900 78.028000 0
M  V30 10 C -2.334300 41.813700 77.963400 0
M  V30 11 C -2.203500 40.886700 79.108100 0
M  V30 12 N -1.951400 39.568100 78.972400 0
M  V30 13 C -1.747800 39.058400 80.206000 0
M  V30 14 C -1.875900 40.058800 81.149900 0
M  V30 15 C -2.161600 41.220300 80.442700 0
M  V30 16 C -2.189500 42.561400 81.018000 0
M  V30 17 H -1.891900 39.038700 78.074300 0
M  V30 18 C -1.673800 39.938400 82.617500 0
M  V30 19 C -2.440200 40.627400 83.563300 0
M  V30 20 S -1.823800 40.312800 85.084700 0
M  V30 21 C -0.611900 39.308400 84.499700 0
M  V30 22 N -0.671600 39.184300 83.150200 0
M  V30 23 C 0.442500 38.731500 85.355200 0
M  V30 24 C 1.327200 37.841800 84.868900 0
M  V30 25 C 2.412800 37.306500 85.755700 0
M  V30 26 N 2.431800 37.837800 87.099700 0
M  V30 27 C 1.451000 38.773800 87.521900 0
M  V30 28 N 0.534200 39.176400 86.710000 0
M  V30 29 H 3.161500 37.532700 87.759300 0
M  V30 END ATOM
M  V30 BEGIN BOND
M  V30 1 1 7 8
M  V30 2 2 7 16
M  V30 3 1 8 9
M  V30 4 2 9 10
M  V30 5 1 10 11
M  V30 6 1 11 12
M  V30 7 2 11 15
M  V30 8 1 12 13
M  V30 9 2 13 14
M  V30 10 1 14 18
M  V30 11 1 14 15
M  V30 12 2 18 19
M  V30 13 1 18 22
M  V30 14 1 19 20
M  V30 15 1 20 21
M  V30 16 1 21 23
M  V30 17 2 21 22
M  V30 18 2 23 24
M  V30 19 1 23 28
M  V30 20 1 24 25
M  V30 21 1 25 26
M  V30 22 1 26 27
M  V30 23 2 27 28
M  V30 24 1 15 16
M  V30 25 1 3 4
M  V30 26 2 4 5
M  V30 27 1 4 1
M  V30 28 2 1 2
M  V30 29 1 7 3
M  V30 30 1 12 17
M  V30 31 1 26 29
M  V30 32 1 3 6
M  V30 END BOND
M  V30 END CTAB
M  END
>  <minimizedAffinity>  (18) 
5.81801

>  <CNNscore>  (18) 
0.4039089084

>  <CNNaffinity>  (18) 
4.5171432495

>  <CNN_VS>  (18) 
1.8245143890

$$$$
_Inhib_32_acrylamide
     RDKit          3D

  0  0  0  0  0  0  0  0  0  0999 V3000
M  V30 BEGIN CTAB
M  V30 COUNTS 29 32 0 0 0
M  V30 BEGIN ATOM
M  V30 1 C -2.722600 46.375300 83.596200 0
M  V30 2 C -1.785100 47.108600 82.986600 0
M  V30 3 N -3.442700 44.290400 82.544500 0
M  V30 4 C -2.809400 44.874300 83.581000 0
M  V30 5 O -2.347200 44.193100 84.486500 0
M  V30 6 H -3.867600 44.954000 81.871900 0
M  V30 7 C -3.638500 42.885500 82.289000 0
M  V30 8 C -2.547500 41.803000 82.387300 0
M  V30 9 N -2.881700 40.601200 83.124700 0
M  V30 10 C -3.864300 39.795500 82.891500 0
M  V30 11 C -4.962800 40.047900 81.934100 0
M  V30 12 N -5.821100 39.093400 81.518400 0
M  V30 13 C -6.776200 39.693000 80.776000 0
M  V30 14 C -6.528100 41.050200 80.706600 0
M  V30 15 C -5.374700 41.268700 81.450000 0
M  V30 16 C -4.850600 42.582500 81.809500 0
M  V30 17 H -5.776800 38.076700 81.752700 0
M  V30 18 C -7.364200 42.081800 80.038900 0
M  V30 19 C -8.754500 41.989900 79.915300 0
M  V30 20 S -9.298100 43.281700 79.004400 0
M  V30 21 C -7.758500 43.920900 78.802100 0
M  V30 22 N -6.819200 43.176000 79.436700 0
M  V30 23 C -7.474200 45.087300 77.944800 0
M  V30 24 C -6.435600 45.088300 77.089100 0
M  V30 25 C -6.199900 46.275000 76.201600 0
M  V30 26 N -7.165500 47.342900 76.327300 0
M  V30 27 C -8.229000 47.250600 77.263700 0
M  V30 28 N -8.359800 46.206800 78.008900 0
M  V30 29 H -7.080500 48.180900 75.734700 0
M  V30 END ATOM
M  V30 BEGIN BOND
M  V30 1 1 7 8
M  V30 2 2 7 16
M  V30 3 1 8 9
M  V30 4 2 9 10
M  V30 5 1 10 11
M  V30 6 1 11 12
M  V30 7 2 11 15
M  V30 8 1 12 13
M  V30 9 2 13 14
M  V30 10 1 14 18
M  V30 11 1 14 15
M  V30 12 2 18 19
M  V30 13 1 18 22
M  V30 14 1 19 20
M  V30 15 1 20 21
M  V30 16 1 21 23
M  V30 17 2 21 22
M  V30 18 2 23 24
M  V30 19 1 23 28
M  V30 20 1 24 25
M  V30 21 1 25 26
M  V30 22 1 26 27
M  V30 23 2 27 28
M  V30 24 1 15 16
M  V30 25 1 3 4
M  V30 26 2 4 5
M  V30 27 1 4 1
M  V30 28 2 1 2
M  V30 29 1 7 3
M  V30 30 1 12 17
M  V30 31 1 26 29
M  V30 32 1 3 6
M  V30 END BOND
M  V30 END CTAB
M  END
>  <minimizedAffinity>  (19) 
-2.71654

>  <CNNscore>  (19) 
0.4036279619

>  <CNNaffinity>  (19) 
5.4726114273

>  <CNN_VS>  (19) 
2.2088990211

$$$$
_Inhib_32_acrylamide
     RDKit          3D

  0  0  0  0  0  0  0  0  0  0999 V3000
M  V30 BEGIN CTAB
M  V30 COUNTS 29 32 0 0 0
M  V30 BEGIN ATOM
M  V30 1 C -2.141800 46.396700 80.078000 0
M  V30 2 C -1.686400 47.047300 81.153900 0
M  V30 3 N -0.900200 44.316900 80.401300 0
M  V30 4 C -1.618900 45.085800 79.559400 0
M  V30 5 O -1.809800 44.727400 78.405000 0
M  V30 6 H -0.726900 44.742700 81.329700 0
M  V30 7 C -0.314700 43.023000 80.155900 0
M  V30 8 C 0.052900 41.992800 81.240200 0
M  V30 9 N -0.381700 40.627900 81.021200 0
M  V30 10 C -0.101500 39.877400 80.007600 0
M  V30 11 C 0.567300 40.333500 78.770000 0
M  V30 12 N 1.080300 39.492100 77.848300 0
M  V30 13 C 1.475200 40.231500 76.789900 0
M  V30 14 C 1.219600 41.566900 77.033700 0
M  V30 15 C 0.637600 41.623100 78.294200 0
M  V30 16 C 0.029500 42.813700 78.879800 0
M  V30 17 H 1.135000 38.452000 77.922400 0
M  V30 18 C 1.447400 42.707300 76.108000 0
M  V30 19 C 2.689200 43.004100 75.536700 0
M  V30 20 S 2.550900 44.420000 74.659300 0
M  V30 21 C 0.922300 44.608500 75.023200 0
M  V30 22 N 0.460600 43.593500 75.795500 0
M  V30 23 C 0.139200 45.795800 74.631500 0
M  V30 24 C -1.171800 45.893500 74.919000 0
M  V30 25 C -1.928900 47.133200 74.543100 0
M  V30 26 N -1.145200 48.167400 73.906500 0
M  V30 27 C 0.235800 47.969400 73.641600 0
M  V30 28 N 0.818000 46.868900 73.976200 0
M  V30 29 H -1.592500 49.055600 73.639100 0
M  V30 END ATOM
M  V30 BEGIN BOND
M  V30 1 1 7 8
M  V30 2 2 7 16
M  V30 3 1 8 9
M  V30 4 2 9 10
M  V30 5 1 10 11
M  V30 6 1 11 12
M  V30 7 2 11 15
M  V30 8 1 12 13
M  V30 9 2 13 14
M  V30 10 1 14 18
M  V30 11 1 14 15
M  V30 12 2 18 19
M  V30 13 1 18 22
M  V30 14 1 19 20
M  V30 15 1 20 21
M  V30 16 1 21 23
M  V30 17 2 21 22
M  V30 18 2 23 24
M  V30 19 1 23 28
M  V30 20 1 24 25
M  V30 21 1 25 26
M  V30 22 1 26 27
M  V30 23 2 27 28
M  V30 24 1 15 16
M  V30 25 1 3 4
M  V30 26 2 4 5
M  V30 27 1 4 1
M  V30 28 2 1 2
M  V30 29 1 7 3
M  V30 30 1 12 17
M  V30 31 1 26 29
M  V30 32 1 3 6
M  V30 END BOND
M  V30 END CTAB
M  END
>  <minimizedAffinity>  (20) 
-0.25676

>  <CNNscore>  (20) 
0.3768883049

>  <CNNaffinity>  (20) 
4.3231792450

>  <CNN_VS>  (20) 
1.6293556690

$$$$
